*SPEF "ieee 1481-1999"
*DESIGN "N_term_SRAM"
*DATE "11:08:13 Friday November 28, 2025"
*VENDOR "The OpenROAD Project"
*PROGRAM "OpenROAD"
*VERSION "341650e72dad0dc8571822ff8c5d9c5e365327f7"
*DESIGN_FLOW "NAME_SCOPE LOCAL" "PIN_CAP NONE"
*DIVIDER /
*DELIMITER :
*BUS_DELIMITER []
*T_UNIT 1 NS
*C_UNIT 1 PF
*R_UNIT 1 OHM
*L_UNIT 1 HENRY

*NAME_MAP
*1 FrameData[0]
*2 FrameData[10]
*3 FrameData[11]
*4 FrameData[12]
*5 FrameData[13]
*6 FrameData[14]
*7 FrameData[15]
*8 FrameData[16]
*9 FrameData[17]
*10 FrameData[18]
*11 FrameData[19]
*12 FrameData[1]
*13 FrameData[20]
*14 FrameData[21]
*15 FrameData[22]
*16 FrameData[23]
*17 FrameData[24]
*18 FrameData[25]
*19 FrameData[26]
*20 FrameData[27]
*21 FrameData[28]
*22 FrameData[29]
*23 FrameData[2]
*24 FrameData[30]
*25 FrameData[31]
*26 FrameData[3]
*27 FrameData[4]
*28 FrameData[5]
*29 FrameData[6]
*30 FrameData[7]
*31 FrameData[8]
*32 FrameData[9]
*33 FrameData_O[0]
*34 FrameData_O[10]
*35 FrameData_O[11]
*36 FrameData_O[12]
*37 FrameData_O[13]
*38 FrameData_O[14]
*39 FrameData_O[15]
*40 FrameData_O[16]
*41 FrameData_O[17]
*42 FrameData_O[18]
*43 FrameData_O[19]
*44 FrameData_O[1]
*45 FrameData_O[20]
*46 FrameData_O[21]
*47 FrameData_O[22]
*48 FrameData_O[23]
*49 FrameData_O[24]
*50 FrameData_O[25]
*51 FrameData_O[26]
*52 FrameData_O[27]
*53 FrameData_O[28]
*54 FrameData_O[29]
*55 FrameData_O[2]
*56 FrameData_O[30]
*57 FrameData_O[31]
*58 FrameData_O[3]
*59 FrameData_O[4]
*60 FrameData_O[5]
*61 FrameData_O[6]
*62 FrameData_O[7]
*63 FrameData_O[8]
*64 FrameData_O[9]
*65 FrameStrobe[0]
*66 FrameStrobe[10]
*67 FrameStrobe[11]
*68 FrameStrobe[12]
*69 FrameStrobe[13]
*70 FrameStrobe[14]
*71 FrameStrobe[15]
*72 FrameStrobe[16]
*73 FrameStrobe[17]
*74 FrameStrobe[18]
*75 FrameStrobe[19]
*76 FrameStrobe[1]
*77 FrameStrobe[2]
*78 FrameStrobe[3]
*79 FrameStrobe[4]
*80 FrameStrobe[5]
*81 FrameStrobe[6]
*82 FrameStrobe[7]
*83 FrameStrobe[8]
*84 FrameStrobe[9]
*85 FrameStrobe_O[0]
*86 FrameStrobe_O[10]
*87 FrameStrobe_O[11]
*88 FrameStrobe_O[12]
*89 FrameStrobe_O[13]
*90 FrameStrobe_O[14]
*91 FrameStrobe_O[15]
*92 FrameStrobe_O[16]
*93 FrameStrobe_O[17]
*94 FrameStrobe_O[18]
*95 FrameStrobe_O[19]
*96 FrameStrobe_O[1]
*97 FrameStrobe_O[2]
*98 FrameStrobe_O[3]
*99 FrameStrobe_O[4]
*100 FrameStrobe_O[5]
*101 FrameStrobe_O[6]
*102 FrameStrobe_O[7]
*103 FrameStrobe_O[8]
*104 FrameStrobe_O[9]
*105 N1END[0]
*106 N1END[1]
*107 N1END[2]
*108 N1END[3]
*109 N2END[0]
*110 N2END[1]
*111 N2END[2]
*112 N2END[3]
*113 N2END[4]
*114 N2END[5]
*115 N2END[6]
*116 N2END[7]
*117 N2MID[0]
*118 N2MID[1]
*119 N2MID[2]
*120 N2MID[3]
*121 N2MID[4]
*122 N2MID[5]
*123 N2MID[6]
*124 N2MID[7]
*125 N4END[0]
*126 N4END[10]
*127 N4END[11]
*128 N4END[12]
*129 N4END[13]
*130 N4END[14]
*131 N4END[15]
*132 N4END[1]
*133 N4END[2]
*134 N4END[3]
*135 N4END[4]
*136 N4END[5]
*137 N4END[6]
*138 N4END[7]
*139 N4END[8]
*140 N4END[9]
*141 S1BEG[0]
*142 S1BEG[1]
*143 S1BEG[2]
*144 S1BEG[3]
*145 S2BEG[0]
*146 S2BEG[1]
*147 S2BEG[2]
*148 S2BEG[3]
*149 S2BEG[4]
*150 S2BEG[5]
*151 S2BEG[6]
*152 S2BEG[7]
*153 S2BEGb[0]
*154 S2BEGb[1]
*155 S2BEGb[2]
*156 S2BEGb[3]
*157 S2BEGb[4]
*158 S2BEGb[5]
*159 S2BEGb[6]
*160 S2BEGb[7]
*161 S4BEG[0]
*162 S4BEG[10]
*163 S4BEG[11]
*164 S4BEG[12]
*165 S4BEG[13]
*166 S4BEG[14]
*167 S4BEG[15]
*168 S4BEG[1]
*169 S4BEG[2]
*170 S4BEG[3]
*171 S4BEG[4]
*172 S4BEG[5]
*173 S4BEG[6]
*174 S4BEG[7]
*175 S4BEG[8]
*176 S4BEG[9]
*177 UserCLK
*178 UserCLKo
*181 net1
*182 net10
*183 net11
*184 net12
*185 net13
*186 net14
*187 net15
*188 net16
*189 net17
*190 net18
*191 net19
*192 net2
*193 net20
*194 net21
*195 net22
*196 net23
*197 net24
*198 net25
*199 net26
*200 net27
*201 net28
*202 net29
*203 net3
*204 net30
*205 net31
*206 net32
*207 net33
*208 net34
*209 net35
*210 net36
*211 net37
*212 net38
*213 net39
*214 net4
*215 net40
*216 net41
*217 net42
*218 net43
*219 net44
*220 net45
*221 net46
*222 net47
*223 net48
*224 net49
*225 net5
*226 net50
*227 net51
*228 net52
*229 net53
*230 net54
*231 net55
*232 net56
*233 net57
*234 net58
*235 net59
*236 net6
*237 net60
*238 net61
*239 net62
*240 net63
*241 net64
*242 net65
*243 net66
*244 net67
*245 net68
*246 net69
*247 net7
*248 net70
*249 net71
*250 net72
*251 net73
*252 net74
*253 net75
*254 net76
*255 net77
*256 net78
*257 net79
*258 net8
*259 net80
*260 net81
*261 net82
*262 net83
*263 net84
*264 net85
*265 net86
*266 net87
*267 net88
*268 net89
*269 net9
*270 FILLER_0_104
*271 FILLER_0_138
*272 FILLER_0_140
*273 FILLER_0_169
*274 FILLER_0_2
*275 FILLER_0_200
*276 FILLER_0_220
*277 FILLER_0_240
*278 FILLER_0_36
*279 FILLER_0_70
*280 FILLER_10_101
*281 FILLER_10_107
*282 FILLER_10_123
*283 FILLER_10_132
*284 FILLER_10_140
*285 FILLER_10_144
*286 FILLER_10_154
*287 FILLER_10_170
*288 FILLER_10_174
*289 FILLER_10_177
*290 FILLER_10_2
*291 FILLER_10_209
*292 FILLER_10_225
*293 FILLER_10_229
*294 FILLER_10_247
*295 FILLER_10_34
*296 FILLER_10_37
*297 FILLER_10_69
*298 FILLER_10_93
*299 FILLER_11_104
*300 FILLER_11_120
*301 FILLER_11_132
*302 FILLER_11_142
*303 FILLER_11_152
*304 FILLER_11_184
*305 FILLER_11_2
*306 FILLER_11_200
*307 FILLER_11_208
*308 FILLER_11_212
*309 FILLER_11_220
*310 FILLER_11_224
*311 FILLER_11_226
*312 FILLER_11_66
*313 FILLER_11_72
*314 FILLER_12_101
*315 FILLER_12_107
*316 FILLER_12_123
*317 FILLER_12_131
*318 FILLER_12_141
*319 FILLER_12_151
*320 FILLER_12_167
*321 FILLER_12_177
*322 FILLER_12_2
*323 FILLER_12_209
*324 FILLER_12_225
*325 FILLER_12_229
*326 FILLER_12_247
*327 FILLER_12_34
*328 FILLER_12_37
*329 FILLER_13_104
*330 FILLER_13_112
*331 FILLER_13_138
*332 FILLER_13_142
*333 FILLER_13_152
*334 FILLER_13_184
*335 FILLER_13_2
*336 FILLER_13_200
*337 FILLER_13_208
*338 FILLER_13_212
*339 FILLER_13_66
*340 FILLER_13_72
*341 FILLER_14_101
*342 FILLER_14_107
*343 FILLER_14_131
*344 FILLER_14_157
*345 FILLER_14_173
*346 FILLER_14_177
*347 FILLER_14_193
*348 FILLER_14_2
*349 FILLER_14_209
*350 FILLER_14_247
*351 FILLER_14_34
*352 FILLER_14_37
*353 FILLER_14_53
*354 FILLER_14_61
*355 FILLER_14_77
*356 FILLER_14_85
*357 FILLER_15_10
*358 FILLER_15_104
*359 FILLER_15_146
*360 FILLER_15_169
*361 FILLER_15_2
*362 FILLER_15_200
*363 FILLER_15_206
*364 FILLER_15_235
*365 FILLER_15_237
*366 FILLER_15_240
*367 FILLER_15_242
*368 FILLER_15_257
*369 FILLER_15_265
*370 FILLER_15_36
*371 FILLER_15_65
*372 FILLER_15_67
*373 FILLER_15_70
*374 FILLER_1_142
*375 FILLER_1_2
*376 FILLER_1_207
*377 FILLER_1_209
*378 FILLER_1_226
*379 FILLER_1_66
*380 FILLER_1_72
*381 FILLER_2_107
*382 FILLER_2_2
*383 FILLER_2_227
*384 FILLER_2_247
*385 FILLER_2_34
*386 FILLER_2_37
*387 FILLER_2_45
*388 FILLER_2_49
*389 FILLER_2_51
*390 FILLER_2_68
*391 FILLER_2_72
*392 FILLER_3_150
*393 FILLER_3_2
*394 FILLER_3_207
*395 FILLER_3_209
*396 FILLER_3_220
*397 FILLER_3_224
*398 FILLER_3_226
*399 FILLER_3_66
*400 FILLER_3_72
*401 FILLER_3_76
*402 FILLER_3_86
*403 FILLER_3_94
*404 FILLER_4_107
*405 FILLER_4_145
*406 FILLER_4_154
*407 FILLER_4_156
*408 FILLER_4_171
*409 FILLER_4_2
*410 FILLER_4_221
*411 FILLER_4_237
*412 FILLER_4_247
*413 FILLER_4_34
*414 FILLER_4_37
*415 FILLER_4_69
*416 FILLER_4_85
*417 FILLER_4_94
*418 FILLER_4_96
*419 FILLER_5_104
*420 FILLER_5_112
*421 FILLER_5_114
*422 FILLER_5_123
*423 FILLER_5_142
*424 FILLER_5_168
*425 FILLER_5_2
*426 FILLER_5_205
*427 FILLER_5_209
*428 FILLER_5_220
*429 FILLER_5_236
*430 FILLER_5_240
*431 FILLER_5_66
*432 FILLER_5_72
*433 FILLER_6_101
*434 FILLER_6_107
*435 FILLER_6_115
*436 FILLER_6_135
*437 FILLER_6_147
*438 FILLER_6_177
*439 FILLER_6_194
*440 FILLER_6_2
*441 FILLER_6_202
*442 FILLER_6_206
*443 FILLER_6_216
*444 FILLER_6_232
*445 FILLER_6_236
*446 FILLER_6_34
*447 FILLER_6_37
*448 FILLER_7_104
*449 FILLER_7_112
*450 FILLER_7_116
*451 FILLER_7_126
*452 FILLER_7_130
*453 FILLER_7_139
*454 FILLER_7_142
*455 FILLER_7_151
*456 FILLER_7_160
*457 FILLER_7_164
*458 FILLER_7_182
*459 FILLER_7_190
*460 FILLER_7_2
*461 FILLER_7_200
*462 FILLER_7_208
*463 FILLER_7_212
*464 FILLER_7_221
*465 FILLER_7_229
*466 FILLER_7_66
*467 FILLER_7_72
*468 FILLER_8_107
*469 FILLER_8_131
*470 FILLER_8_147
*471 FILLER_8_151
*472 FILLER_8_161
*473 FILLER_8_170
*474 FILLER_8_174
*475 FILLER_8_177
*476 FILLER_8_181
*477 FILLER_8_183
*478 FILLER_8_192
*479 FILLER_8_2
*480 FILLER_8_204
*481 FILLER_8_236
*482 FILLER_8_244
*483 FILLER_8_34
*484 FILLER_8_37
*485 FILLER_8_69
*486 FILLER_8_77
*487 FILLER_8_89
*488 FILLER_9_104
*489 FILLER_9_108
*490 FILLER_9_118
*491 FILLER_9_120
*492 FILLER_9_129
*493 FILLER_9_139
*494 FILLER_9_142
*495 FILLER_9_152
*496 FILLER_9_160
*497 FILLER_9_162
*498 FILLER_9_187
*499 FILLER_9_195
*500 FILLER_9_2
*501 FILLER_9_205
*502 FILLER_9_209
*503 FILLER_9_212
*504 FILLER_9_228
*505 FILLER_9_230
*506 FILLER_9_239
*507 FILLER_9_66
*508 FILLER_9_72
*509 PHY_EDGE_ROW_0_Left_16
*510 PHY_EDGE_ROW_0_Right_0
*511 PHY_EDGE_ROW_10_Left_26
*512 PHY_EDGE_ROW_10_Right_10
*513 PHY_EDGE_ROW_11_Left_27
*514 PHY_EDGE_ROW_11_Right_11
*515 PHY_EDGE_ROW_12_Left_28
*516 PHY_EDGE_ROW_12_Right_12
*517 PHY_EDGE_ROW_13_Left_29
*518 PHY_EDGE_ROW_13_Right_13
*519 PHY_EDGE_ROW_14_Left_30
*520 PHY_EDGE_ROW_14_Right_14
*521 PHY_EDGE_ROW_15_Left_31
*522 PHY_EDGE_ROW_15_Right_15
*523 PHY_EDGE_ROW_1_Left_17
*524 PHY_EDGE_ROW_1_Right_1
*525 PHY_EDGE_ROW_2_Left_18
*526 PHY_EDGE_ROW_2_Right_2
*527 PHY_EDGE_ROW_3_Left_19
*528 PHY_EDGE_ROW_3_Right_3
*529 PHY_EDGE_ROW_4_Left_20
*530 PHY_EDGE_ROW_4_Right_4
*531 PHY_EDGE_ROW_5_Left_21
*532 PHY_EDGE_ROW_5_Right_5
*533 PHY_EDGE_ROW_6_Left_22
*534 PHY_EDGE_ROW_6_Right_6
*535 PHY_EDGE_ROW_7_Left_23
*536 PHY_EDGE_ROW_7_Right_7
*537 PHY_EDGE_ROW_8_Left_24
*538 PHY_EDGE_ROW_8_Right_8
*539 PHY_EDGE_ROW_9_Left_25
*540 PHY_EDGE_ROW_9_Right_9
*541 TAP_TAPCELL_ROW_0_32
*542 TAP_TAPCELL_ROW_0_33
*543 TAP_TAPCELL_ROW_0_34
*544 TAP_TAPCELL_ROW_0_35
*545 TAP_TAPCELL_ROW_0_36
*546 TAP_TAPCELL_ROW_0_37
*547 TAP_TAPCELL_ROW_0_38
*548 TAP_TAPCELL_ROW_10_70
*549 TAP_TAPCELL_ROW_10_71
*550 TAP_TAPCELL_ROW_10_72
*551 TAP_TAPCELL_ROW_10_73
*552 TAP_TAPCELL_ROW_11_74
*553 TAP_TAPCELL_ROW_11_75
*554 TAP_TAPCELL_ROW_11_76
*555 TAP_TAPCELL_ROW_12_77
*556 TAP_TAPCELL_ROW_12_78
*557 TAP_TAPCELL_ROW_12_79
*558 TAP_TAPCELL_ROW_12_80
*559 TAP_TAPCELL_ROW_13_81
*560 TAP_TAPCELL_ROW_13_82
*561 TAP_TAPCELL_ROW_13_83
*562 TAP_TAPCELL_ROW_14_84
*563 TAP_TAPCELL_ROW_14_85
*564 TAP_TAPCELL_ROW_14_86
*565 TAP_TAPCELL_ROW_14_87
*566 TAP_TAPCELL_ROW_15_88
*567 TAP_TAPCELL_ROW_15_89
*568 TAP_TAPCELL_ROW_15_90
*569 TAP_TAPCELL_ROW_15_91
*570 TAP_TAPCELL_ROW_15_92
*571 TAP_TAPCELL_ROW_15_93
*572 TAP_TAPCELL_ROW_15_94
*573 TAP_TAPCELL_ROW_1_39
*574 TAP_TAPCELL_ROW_1_40
*575 TAP_TAPCELL_ROW_1_41
*576 TAP_TAPCELL_ROW_2_42
*577 TAP_TAPCELL_ROW_2_43
*578 TAP_TAPCELL_ROW_2_44
*579 TAP_TAPCELL_ROW_2_45
*580 TAP_TAPCELL_ROW_3_46
*581 TAP_TAPCELL_ROW_3_47
*582 TAP_TAPCELL_ROW_3_48
*583 TAP_TAPCELL_ROW_4_49
*584 TAP_TAPCELL_ROW_4_50
*585 TAP_TAPCELL_ROW_4_51
*586 TAP_TAPCELL_ROW_4_52
*587 TAP_TAPCELL_ROW_5_53
*588 TAP_TAPCELL_ROW_5_54
*589 TAP_TAPCELL_ROW_5_55
*590 TAP_TAPCELL_ROW_6_56
*591 TAP_TAPCELL_ROW_6_57
*592 TAP_TAPCELL_ROW_6_58
*593 TAP_TAPCELL_ROW_6_59
*594 TAP_TAPCELL_ROW_7_60
*595 TAP_TAPCELL_ROW_7_61
*596 TAP_TAPCELL_ROW_7_62
*597 TAP_TAPCELL_ROW_8_63
*598 TAP_TAPCELL_ROW_8_64
*599 TAP_TAPCELL_ROW_8_65
*600 TAP_TAPCELL_ROW_8_66
*601 TAP_TAPCELL_ROW_9_67
*602 TAP_TAPCELL_ROW_9_68
*603 TAP_TAPCELL_ROW_9_69
*604 _00_
*605 _01_
*606 _02_
*607 _03_
*608 _04_
*609 _05_
*610 _06_
*611 _07_
*612 _08_
*613 _09_
*614 _10_
*615 _11_
*616 _12_
*617 _13_
*618 _14_
*619 _15_
*620 _16_
*621 _17_
*622 _18_
*623 _19_
*624 _20_
*625 _21_
*626 _22_
*627 _23_
*628 _24_
*629 _25_
*630 _26_
*631 _27_
*632 _28_
*633 _29_
*634 _30_
*635 _31_
*636 _32_
*637 _33_
*638 _34_
*639 _35_
*640 _36_
*641 _37_
*642 _38_
*643 _39_
*644 _40_
*645 _41_
*646 _42_
*647 _43_
*648 _44_
*649 _45_
*650 _46_
*651 _47_
*652 _48_
*653 _49_
*654 _50_
*655 _51_
*656 _52_
*657 _53_
*658 _54_
*659 _55_
*660 _56_
*661 _57_
*662 _58_
*663 _59_
*664 _60_
*665 _61_
*666 _62_
*667 _63_
*668 _64_
*669 _65_
*670 _66_
*671 _67_
*672 _68_
*673 _69_
*674 _70_
*675 _71_
*676 _72_
*677 _73_
*678 _74_
*679 _75_
*680 _76_
*681 _77_
*682 _78_
*683 _79_
*684 _80_
*685 _81_
*686 _82_
*687 _83_
*688 _84_
*689 _85_
*690 _86_
*691 _87_
*692 _88_
*693 output1
*694 output10
*695 output11
*696 output12
*697 output13
*698 output14
*699 output15
*700 output16
*701 output17
*702 output18
*703 output19
*704 output2
*705 output20
*706 output21
*707 output22
*708 output23
*709 output24
*710 output25
*711 output26
*712 output27
*713 output28
*714 output29
*715 output3
*716 output30
*717 output31
*718 output32
*719 output33
*720 output34
*721 output35
*722 output36
*723 output37
*724 output38
*725 output39
*726 output4
*727 output40
*728 output41
*729 output42
*730 output43
*731 output44
*732 output45
*733 output46
*734 output47
*735 output48
*736 output49
*737 output5
*738 output50
*739 output51
*740 output52
*741 output53
*742 output54
*743 output55
*744 output56
*745 output57
*746 output58
*747 output59
*748 output6
*749 output60
*750 output61
*751 output62
*752 output63
*753 output64
*754 output65
*755 output66
*756 output67
*757 output68
*758 output69
*759 output7
*760 output70
*761 output71
*762 output72
*763 output73
*764 output74
*765 output75
*766 output76
*767 output77
*768 output78
*769 output79
*770 output8
*771 output80
*772 output81
*773 output82
*774 output83
*775 output84
*776 output85
*777 output86
*778 output87
*779 output88
*780 output89
*781 output9

*PORTS
FrameData[0] I
FrameData[10] I
FrameData[11] I
FrameData[12] I
FrameData[13] I
FrameData[14] I
FrameData[15] I
FrameData[16] I
FrameData[17] I
FrameData[18] I
FrameData[19] I
FrameData[1] I
FrameData[20] I
FrameData[21] I
FrameData[22] I
FrameData[23] I
FrameData[24] I
FrameData[25] I
FrameData[26] I
FrameData[27] I
FrameData[28] I
FrameData[29] I
FrameData[2] I
FrameData[30] I
FrameData[31] I
FrameData[3] I
FrameData[4] I
FrameData[5] I
FrameData[6] I
FrameData[7] I
FrameData[8] I
FrameData[9] I
FrameData_O[0] O
FrameData_O[10] O
FrameData_O[11] O
FrameData_O[12] O
FrameData_O[13] O
FrameData_O[14] O
FrameData_O[15] O
FrameData_O[16] O
FrameData_O[17] O
FrameData_O[18] O
FrameData_O[19] O
FrameData_O[1] O
FrameData_O[20] O
FrameData_O[21] O
FrameData_O[22] O
FrameData_O[23] O
FrameData_O[24] O
FrameData_O[25] O
FrameData_O[26] O
FrameData_O[27] O
FrameData_O[28] O
FrameData_O[29] O
FrameData_O[2] O
FrameData_O[30] O
FrameData_O[31] O
FrameData_O[3] O
FrameData_O[4] O
FrameData_O[5] O
FrameData_O[6] O
FrameData_O[7] O
FrameData_O[8] O
FrameData_O[9] O
FrameStrobe[0] I
FrameStrobe[10] I
FrameStrobe[11] I
FrameStrobe[12] I
FrameStrobe[13] I
FrameStrobe[14] I
FrameStrobe[15] I
FrameStrobe[16] I
FrameStrobe[17] I
FrameStrobe[18] I
FrameStrobe[19] I
FrameStrobe[1] I
FrameStrobe[2] I
FrameStrobe[3] I
FrameStrobe[4] I
FrameStrobe[5] I
FrameStrobe[6] I
FrameStrobe[7] I
FrameStrobe[8] I
FrameStrobe[9] I
FrameStrobe_O[0] O
FrameStrobe_O[10] O
FrameStrobe_O[11] O
FrameStrobe_O[12] O
FrameStrobe_O[13] O
FrameStrobe_O[14] O
FrameStrobe_O[15] O
FrameStrobe_O[16] O
FrameStrobe_O[17] O
FrameStrobe_O[18] O
FrameStrobe_O[19] O
FrameStrobe_O[1] O
FrameStrobe_O[2] O
FrameStrobe_O[3] O
FrameStrobe_O[4] O
FrameStrobe_O[5] O
FrameStrobe_O[6] O
FrameStrobe_O[7] O
FrameStrobe_O[8] O
FrameStrobe_O[9] O
N1END[0] I
N1END[1] I
N1END[2] I
N1END[3] I
N2END[0] I
N2END[1] I
N2END[2] I
N2END[3] I
N2END[4] I
N2END[5] I
N2END[6] I
N2END[7] I
N2MID[0] I
N2MID[1] I
N2MID[2] I
N2MID[3] I
N2MID[4] I
N2MID[5] I
N2MID[6] I
N2MID[7] I
N4END[0] I
N4END[10] I
N4END[11] I
N4END[12] I
N4END[13] I
N4END[14] I
N4END[15] I
N4END[1] I
N4END[2] I
N4END[3] I
N4END[4] I
N4END[5] I
N4END[6] I
N4END[7] I
N4END[8] I
N4END[9] I
S1BEG[0] O
S1BEG[1] O
S1BEG[2] O
S1BEG[3] O
S2BEG[0] O
S2BEG[1] O
S2BEG[2] O
S2BEG[3] O
S2BEG[4] O
S2BEG[5] O
S2BEG[6] O
S2BEG[7] O
S2BEGb[0] O
S2BEGb[1] O
S2BEGb[2] O
S2BEGb[3] O
S2BEGb[4] O
S2BEGb[5] O
S2BEGb[6] O
S2BEGb[7] O
S4BEG[0] O
S4BEG[10] O
S4BEG[11] O
S4BEG[12] O
S4BEG[13] O
S4BEG[14] O
S4BEG[15] O
S4BEG[1] O
S4BEG[2] O
S4BEG[3] O
S4BEG[4] O
S4BEG[5] O
S4BEG[6] O
S4BEG[7] O
S4BEG[8] O
S4BEG[9] O
UserCLK I
UserCLKo O

*D_NET *1 0.00965824
*CONN
*P FrameData[0] I
*I *604:I I *D gf180mcu_fd_sc_mcu7t5v0__buf_2
*CAP
1 FrameData[0] 0.00256081
2 *604:I 0.00256081
3 *604:I *658:I 0
4 *604:I *659:I 0.000161706
5 *604:I *662:I 0.000198014
6 *604:I *664:I 0.00174254
7 *604:I *681:I 1.98195e-05
8 *604:I *683:I 0.00022436
9 *604:I *693:I 8.12023e-06
10 *604:I *741:I 0
11 *604:I *743:I 8.44434e-05
12 *604:I *747:I 4.32092e-05
13 *604:I *750:I 0.000329459
14 *604:I *751:I 1.07374e-05
15 *604:I *774:I 0.00101834
16 *604:I *12:13 0.000408867
17 *604:I *23:15 0.000198684
18 *604:I *27:15 8.8328e-05
19 *604:I *30:25 0
*RES
1 FrameData[0] *604:I 41.535 
*END

*D_NET *2 0.0127723
*CONN
*P FrameData[10] I
*I *614:I I *D gf180mcu_fd_sc_mcu7t5v0__buf_2
*CAP
1 FrameData[10] 0.00172552
2 *614:I 0.00172552
3 *614:I *613:I 0.000771368
4 *614:I *616:I 0
5 *614:I *666:I 0.000708208
6 *614:I *704:I 1.17652e-05
7 *614:I *745:I 0.00552097
8 *614:I *3:21 5.47967e-05
9 *614:I *132:27 0.000178563
10 *614:I *204:24 0.000169515
11 *614:I *206:24 0.00190608
*RES
1 FrameData[10] *614:I 35.415 
*END

*D_NET *3 0.0189535
*CONN
*P FrameData[11] I
*I *615:I I *D gf180mcu_fd_sc_mcu7t5v0__buf_2
*CAP
1 FrameData[11] 0.00217082
2 *615:I 8.5972e-05
3 *3:21 0.00225679
4 *615:I *610:I 0.00223425
5 *615:I *667:I 0.000226779
6 *615:I *671:I 0.000293999
7 *615:I *683:I 1.80525e-05
8 *615:I *30:25 0.000305363
9 *615:I *138:21 0.000677492
10 *3:21 *616:I 4.86642e-05
11 *3:21 *617:I 0
12 *3:21 *618:I 1.75631e-05
13 *3:21 *620:I 0
14 *3:21 *621:I 0.000197682
15 *3:21 *622:I 0.0062592
16 *3:21 *623:I 0.00372388
17 *3:21 *643:I 0
18 *3:21 *676:I 1.34505e-05
19 *3:21 *739:I 0.000247379
20 *3:21 *28:13 0
21 *3:21 *83:21 0.000121348
22 *614:I *3:21 5.47967e-05
*RES
1 FrameData[11] *3:21 45.855 
2 *3:21 *615:I 19.17 
*END

*D_NET *4 0.0157813
*CONN
*P FrameData[12] I
*I *616:I I *D gf180mcu_fd_sc_mcu7t5v0__buf_2
*CAP
1 FrameData[12] 0.00180044
2 *616:I 0.00180044
3 *616:I *610:I 0.000653866
4 *616:I *617:I 0.000691358
5 *616:I *619:I 0.00290552
6 *616:I *666:I 0.000735031
7 *616:I *667:I 0.000987936
8 *616:I *672:I 0.00428708
9 *616:I *674:I 0.00138943
10 *616:I *30:25 0.00019285
11 *616:I *125:15 0.000193566
12 *616:I *134:25 9.51114e-05
13 *614:I *616:I 0
14 *3:21 *616:I 4.86642e-05
*RES
1 FrameData[12] *616:I 48.465 
*END

*D_NET *5 0.00824964
*CONN
*P FrameData[13] I
*I *617:I I *D gf180mcu_fd_sc_mcu7t5v0__buf_2
*CAP
1 FrameData[13] 0.00176513
2 *617:I 0.00176513
3 *617:I *618:I 0.00128997
4 *617:I *667:I 0.000794476
5 *617:I *683:I 0.000868103
6 *617:I *712:I 0
7 *617:I *753:I 0
8 *617:I *763:I 6.77466e-05
9 *617:I *135:23 0.00100774
10 *616:I *617:I 0.000691358
11 *3:21 *617:I 0
*RES
1 FrameData[13] *617:I 33.885 
*END

*D_NET *6 0.00771893
*CONN
*P FrameData[14] I
*I *618:I I *D gf180mcu_fd_sc_mcu7t5v0__buf_2
*CAP
1 FrameData[14] 0.00142477
2 *618:I 0.00142477
3 *618:I *619:I 0.00131559
4 *618:I *674:I 0.00166372
5 *618:I *748:I 1.17725e-05
6 *618:I *135:23 0.000570775
7 *617:I *618:I 0.00128997
8 *3:21 *618:I 1.75631e-05
*RES
1 FrameData[14] *618:I 32.355 
*END

*D_NET *7 0.0121954
*CONN
*P FrameData[15] I
*I *619:I I *D gf180mcu_fd_sc_mcu7t5v0__buf_2
*CAP
1 FrameData[15] 0.00116897
2 *619:I 0.00116897
3 *619:I *608:I 0
4 *619:I *620:I 0.00108579
5 *619:I *672:I 0.000413623
6 *619:I *674:I 0.00401772
7 *619:I *675:I 0.00011919
8 *616:I *619:I 0.00290552
9 *618:I *619:I 0.00131559
*RES
1 FrameData[15] *619:I 33.255 
*END

*D_NET *8 0.012921
*CONN
*P FrameData[16] I
*I *620:I I *D gf180mcu_fd_sc_mcu7t5v0__buf_2
*CAP
1 FrameData[16] 0.00101564
2 *620:I 0.00101564
3 *620:I *608:I 0
4 *620:I *621:I 0.000382054
5 *620:I *673:I 0.00375957
6 *620:I *675:I 0.00396015
7 *620:I *12:13 0.00166194
8 *620:I *83:21 1.73225e-05
9 *620:I *247:22 2.28634e-05
10 *619:I *620:I 0.00108579
11 *3:21 *620:I 0
*RES
1 FrameData[16] *620:I 33.795 
*END

*D_NET *9 0.0109439
*CONN
*P FrameData[17] I
*I *621:I I *D gf180mcu_fd_sc_mcu7t5v0__buf_2
*CAP
1 FrameData[17] 0.00126019
2 *621:I 0.00126019
3 *621:I *609:I 0
4 *621:I *622:I 0.0016203
5 *621:I *640:I 0
6 *621:I *673:I 0.000115151
7 *621:I *739:I 8.31395e-06
8 *621:I *781:I 1.17652e-05
9 *621:I *12:13 0.00398698
10 *621:I *83:21 0.00210124
11 *620:I *621:I 0.000382054
12 *3:21 *621:I 0.000197682
*RES
1 FrameData[17] *621:I 37.215 
*END

*D_NET *10 0.0135792
*CONN
*P FrameData[18] I
*I *622:I I *D gf180mcu_fd_sc_mcu7t5v0__buf_2
*CAP
1 FrameData[18] 0.000960801
2 *622:I 0.000960801
3 *622:I *623:I 4.43223e-05
4 *622:I *27:15 0.00190622
5 *622:I *81:21 0.00182757
6 *621:I *622:I 0.0016203
7 *3:21 *622:I 0.0062592
*RES
1 FrameData[18] *622:I 42.885 
*END

*D_NET *11 0.013207
*CONN
*P FrameData[19] I
*I *623:I I *D gf180mcu_fd_sc_mcu7t5v0__buf_2
*CAP
1 FrameData[19] 0.00116045
2 *623:I 0.00116045
3 *623:I *609:I 5.00136e-06
4 *623:I *624:I 0.000657422
5 *623:I *739:I 0.000757556
6 *623:I *27:15 0.000641743
7 *623:I *81:21 0.000109332
8 *623:I *83:21 2.3347e-05
9 *623:I *134:25 0.00407794
10 *623:I *220:18 0.000339981
11 *623:I *247:22 0.000484764
12 *623:I *258:20 2.07943e-05
13 *622:I *623:I 4.43223e-05
14 *3:21 *623:I 0.00372388
*RES
1 FrameData[19] *623:I 37.575 
*END

*D_NET *12 0.0175352
*CONN
*P FrameData[1] I
*I *605:I I *D gf180mcu_fd_sc_mcu7t5v0__buf_2
*CAP
1 FrameData[1] 0.00248454
2 *605:I 0.000470827
3 *12:13 0.00295536
4 *605:I *608:I 0
5 *605:I *640:I 4.64342e-05
6 *605:I *712:I 6.66435e-05
7 *605:I *726:I 0
8 *12:13 *673:I 0.00505091
9 *12:13 *23:15 0.000402735
10 *12:13 *29:23 0
11 *604:I *12:13 0.000408867
12 *620:I *12:13 0.00166194
13 *621:I *12:13 0.00398698
*RES
1 FrameData[1] *12:13 46.665 
2 *12:13 *605:I 11.61 
*END

*D_NET *13 0.0191295
*CONN
*P FrameData[20] I
*I *624:I I *D gf180mcu_fd_sc_mcu7t5v0__buf_2
*CAP
1 FrameData[20] 0.000822861
2 *624:I 0.000822861
3 *624:I *625:I 0.000212927
4 *624:I *740:I 0
5 *624:I *27:15 0.0060918
6 *624:I *28:13 0.00990411
7 *624:I *81:21 0.000455781
8 *624:I *220:18 0.000161724
9 *623:I *624:I 0.000657422
*RES
1 FrameData[20] *624:I 37.575 
*END

*D_NET *14 0.00939822
*CONN
*P FrameData[21] I
*I *625:I I *D gf180mcu_fd_sc_mcu7t5v0__buf_2
*CAP
1 FrameData[21] 0.00108952
2 *625:I 0.00108952
3 *625:I *626:I 0.00178899
4 *625:I *641:I 0.00247849
5 *625:I *709:I 6.06389e-05
6 *625:I *739:I 2.14747e-05
7 *625:I *28:13 0.000251087
8 *625:I *268:16 0.00240556
9 *624:I *625:I 0.000212927
*RES
1 FrameData[21] *625:I 33.435 
*END

*D_NET *15 0.0103019
*CONN
*P FrameData[22] I
*I *626:I I *D gf180mcu_fd_sc_mcu7t5v0__buf_2
*CAP
1 FrameData[22] 0.00138929
2 *626:I 0.00138929
3 *626:I *606:I 0.00361372
4 *626:I *627:I 0.00130221
5 *626:I *641:I 0.000599853
6 *626:I *694:I 0.000169927
7 *626:I *734:I 4.85722e-05
8 *626:I *220:18 0
9 *625:I *626:I 0.00178899
*RES
1 FrameData[22] *626:I 35.235 
*END

*D_NET *16 0.00873231
*CONN
*P FrameData[23] I
*I *627:I I *D gf180mcu_fd_sc_mcu7t5v0__buf_2
*CAP
1 FrameData[23] 0.0014211
2 *627:I 0.0014211
3 *627:I *606:I 0.00264995
4 *627:I *628:I 0.00191458
5 *627:I *739:I 2.33787e-05
6 *626:I *627:I 0.00130221
*RES
1 FrameData[23] *627:I 32.535 
*END

*D_NET *17 0.0123824
*CONN
*P FrameData[24] I
*I *628:I I *D gf180mcu_fd_sc_mcu7t5v0__buf_2
*CAP
1 FrameData[24] 0.00119118
2 *628:I 0.00119118
3 *628:I *606:I 0.000123583
4 *628:I *629:I 0.000586925
5 *628:I *630:I 0.000677205
6 *628:I *702:I 0.0011666
7 *628:I *733:I 0.0049549
8 *628:I *740:I 1.44713e-05
9 *628:I *220:18 0.000561754
10 *627:I *628:I 0.00191458
*RES
1 FrameData[24] *628:I 36.495 
*END

*D_NET *18 0.0164574
*CONN
*P FrameData[25] I
*I *629:I I *D gf180mcu_fd_sc_mcu7t5v0__buf_2
*CAP
1 FrameData[25] 0.000417993
2 *629:I 0.000417993
3 *629:I *630:I 0.00674661
4 *629:I *632:I 0.00821368
5 *629:I *709:I 8.68281e-06
6 *629:I *739:I 3.12451e-05
7 *629:I *25:19 3.42509e-05
8 *628:I *629:I 0.000586925
*RES
1 FrameData[25] *629:I 32.535 
*END

*D_NET *19 0.0160998
*CONN
*P FrameData[26] I
*I *630:I I *D gf180mcu_fd_sc_mcu7t5v0__buf_2
*CAP
1 FrameData[26] 0.000955513
2 *630:I 0.000955513
3 *630:I *631:I 0.000484541
4 *630:I *632:I 0.000244989
5 *630:I *702:I 2.31089e-05
6 *630:I *709:I 8.12023e-06
7 *630:I *734:I 0.000161479
8 *630:I *25:19 0.00113713
9 *630:I *220:18 0.00470562
10 *628:I *630:I 0.000677205
11 *629:I *630:I 0.00674661
*RES
1 FrameData[26] *630:I 44.235 
*END

*D_NET *20 0.00900182
*CONN
*P FrameData[27] I
*I *631:I I *D gf180mcu_fd_sc_mcu7t5v0__buf_2
*CAP
1 FrameData[27] 0.00176799
2 *631:I 0.00176799
3 *631:I *632:I 0.000225953
4 *631:I *633:I 0
5 *631:I *719:I 0.000195415
6 *631:I *731:I 0.00165416
7 *631:I *25:19 0.000607066
8 *631:I *125:15 0.00229871
9 *630:I *631:I 0.000484541
*RES
1 FrameData[27] *631:I 37.125 
*END

*D_NET *21 0.0179021
*CONN
*P FrameData[28] I
*I *632:I I *D gf180mcu_fd_sc_mcu7t5v0__buf_2
*CAP
1 FrameData[28] 0.00075431
2 *632:I 0.00075431
3 *632:I *633:I 0.000203017
4 *632:I *700:I 0.00180714
5 *632:I *703:I 0.000692382
6 *632:I *780:I 0
7 *632:I *25:19 0.00493047
8 *632:I *220:18 7.58265e-05
9 *629:I *632:I 0.00821368
10 *630:I *632:I 0.000244989
11 *631:I *632:I 0.000225953
*RES
1 FrameData[28] *632:I 47.385 
*END

*D_NET *22 0.00888485
*CONN
*P FrameData[29] I
*I *633:I I *D gf180mcu_fd_sc_mcu7t5v0__buf_2
*CAP
1 FrameData[29] 0.00176448
2 *633:I 0.00176448
3 *633:I FrameStrobe_O[8] 0.000463466
4 *633:I *634:I 0.0020058
5 *633:I *719:I 0.00222784
6 *633:I *736:I 0.000455766
7 *631:I *633:I 0
8 *632:I *633:I 0.000203017
*RES
1 FrameData[29] *633:I 35.145 
*END

*D_NET *23 0.026073
*CONN
*P FrameData[2] I
*I *606:I I *D gf180mcu_fd_sc_mcu7t5v0__buf_2
*CAP
1 FrameData[2] 0.00349411
2 *606:I 0.00153663
3 *23:15 0.00503073
4 *606:I *609:I 0
5 *606:I *639:I 0
6 *606:I *645:I 4.98717e-05
7 *606:I *672:I 0.000598619
8 *606:I *694:I 0.000497222
9 *606:I *699:I 0.000169766
10 *606:I *701:I 0.000333741
11 *606:I *702:I 0.000140657
12 *606:I *713:I 0.000149458
13 *606:I *720:I 0.000357562
14 *606:I *733:I 0.000122253
15 *606:I *740:I 1.92194e-05
16 *606:I *760:I 1.7382e-05
17 *606:I *219:18 0.000226227
18 *23:15 *656:I 0.000391203
19 *23:15 *657:I 0.000252094
20 *23:15 *663:I 5.31331e-05
21 *23:15 *668:I 4.83513e-05
22 *23:15 *669:I 0.000351042
23 *23:15 *670:I 0.0023373
24 *23:15 *671:I 0.00023712
25 *23:15 *672:I 4.82986e-05
26 *23:15 *673:I 0
27 *23:15 *773:I 0.00124094
28 *23:15 *26:29 0.000679388
29 *23:15 *29:23 0.0001978
30 *23:15 *125:15 0.000504206
31 *604:I *23:15 0.000198684
32 *626:I *606:I 0.00361372
33 *627:I *606:I 0.00264995
34 *628:I *606:I 0.000123583
35 *12:13 *23:15 0.000402735
*RES
1 FrameData[2] *23:15 41.355 
2 *23:15 *606:I 31.14 
*END

*D_NET *24 0.00758705
*CONN
*P FrameData[30] I
*I *634:I I *D gf180mcu_fd_sc_mcu7t5v0__buf_2
*CAP
1 FrameData[30] 0.00242764
2 *634:I 0.00242764
3 *634:I FrameStrobe_O[2] 5.58585e-05
4 *634:I FrameStrobe_O[4] 4.217e-05
5 *634:I FrameStrobe_O[5] 9.69241e-05
6 *634:I FrameStrobe_O[7] 5.58585e-05
7 *634:I FrameStrobe_O[8] 0.000120626
8 *634:I FrameStrobe_O[9] 0
9 *634:I *709:I 2.31089e-05
10 *634:I *739:I 0.000114158
11 *634:I *25:19 0.000217269
12 *633:I *634:I 0.0020058
*RES
1 FrameData[30] *634:I 34.695 
*END

*D_NET *25 0.016475
*CONN
*P FrameData[31] I
*I *635:I I *D gf180mcu_fd_sc_mcu7t5v0__buf_2
*CAP
1 FrameData[31] 0.00155315
2 *635:I 0.000261851
3 *25:19 0.001815
4 *635:I FrameStrobe_O[11] 0.00042307
5 *635:I *710:I 3.72343e-05
6 *635:I *720:I 0.000118734
7 *25:19 UserCLKo 0
8 *25:19 *700:I 0.00303588
9 *25:19 *734:I 0.00154257
10 *25:19 *125:15 0.000761359
11 *629:I *25:19 3.42509e-05
12 *630:I *25:19 0.00113713
13 *631:I *25:19 0.000607066
14 *632:I *25:19 0.00493047
15 *634:I *25:19 0.000217269
*RES
1 FrameData[31] *25:19 48.285 
2 *25:19 *635:I 6.75 
*END

*D_NET *26 0.0192709
*CONN
*P FrameData[3] I
*I *607:I I *D gf180mcu_fd_sc_mcu7t5v0__buf_2
*CAP
1 FrameData[3] 0.00206989
2 *607:I 0
3 *26:29 0.00206989
4 *26:29 *613:I 0.000901993
5 *26:29 *657:I 6.13169e-05
6 *26:29 *658:I 0.00020517
7 *26:29 *660:I 0.000266741
8 *26:29 *661:I 0.000299705
9 *26:29 *663:I 0.000446387
10 *26:29 *669:I 0.000690021
11 *26:29 *671:I 2.13441e-06
12 *26:29 *679:I 0.000426479
13 *26:29 *686:I 0.00163026
14 *26:29 *711:I 3.84844e-06
15 *26:29 *742:I 0.000327598
16 *26:29 *746:I 0.00127682
17 *26:29 *749:I 9.56237e-05
18 *26:29 *771:I 9.04462e-05
19 *26:29 *772:I 0.000206362
20 *26:29 *773:I 0.00371964
21 *26:29 *27:15 0.000578494
22 *26:29 *132:27 0.00257979
23 *26:29 *133:35 0.000371825
24 *26:29 *134:25 0.000183195
25 *26:29 *135:23 8.78908e-05
26 *23:15 *26:29 0.000679388
*RES
1 FrameData[3] *26:29 48.015 
2 *26:29 *607:I 4.5 
*END

*D_NET *27 0.019465
*CONN
*P FrameData[4] I
*I *608:I I *D gf180mcu_fd_sc_mcu7t5v0__buf_2
*CAP
1 FrameData[4] 0.00284075
2 *608:I 0.000605064
3 *27:15 0.00344582
4 *608:I *640:I 2.78637e-05
5 *608:I *734:I 0.000334499
6 *608:I *247:22 8.05199e-05
7 *27:15 *658:I 4.47174e-05
8 *27:15 *667:I 0.000355353
9 *27:15 *745:I 0.00153852
10 *27:15 *28:13 0.000223402
11 *27:15 *29:23 0
12 *27:15 *81:21 0.000661907
13 *604:I *27:15 8.8328e-05
14 *605:I *608:I 0
15 *619:I *608:I 0
16 *620:I *608:I 0
17 *622:I *27:15 0.00190622
18 *623:I *27:15 0.000641743
19 *624:I *27:15 0.0060918
20 *26:29 *27:15 0.000578494
*RES
1 FrameData[4] *27:15 49.725 
2 *27:15 *608:I 8.1 
*END

*D_NET *28 0.0272734
*CONN
*P FrameData[5] I
*I *609:I I *D gf180mcu_fd_sc_mcu7t5v0__buf_2
*CAP
1 FrameData[5] 0.00214055
2 *609:I 0.000485609
3 *28:13 0.00262616
4 *609:I *645:I 0.000120734
5 *609:I *740:I 0.000904299
6 *609:I *781:I 1.39839e-05
7 *609:I *220:18 0
8 *28:13 *695:I 0.000101615
9 *28:13 *29:23 0.000692395
10 *28:13 *81:21 0.000142154
11 *28:13 *268:16 0.00966235
12 *606:I *609:I 0
13 *621:I *609:I 0
14 *623:I *609:I 5.00136e-06
15 *624:I *28:13 0.00990411
16 *625:I *28:13 0.000251087
17 *3:21 *28:13 0
18 *27:15 *28:13 0.000223402
*RES
1 FrameData[5] *28:13 48.825 
2 *28:13 *609:I 12.69 
*END

*D_NET *29 0.0205609
*CONN
*P FrameData[6] I
*I *610:I I *D gf180mcu_fd_sc_mcu7t5v0__buf_2
*CAP
1 FrameData[6] 0.000961208
2 *610:I 0.000422916
3 *29:23 0.00138412
4 *610:I *645:I 2.05919e-05
5 *610:I *666:I 0.00294502