*SPEF "ieee 1481-1999"
*DESIGN "W_IO"
*DATE "22:49:21 Friday December 05, 2025"
*VENDOR "The OpenROAD Project"
*PROGRAM "OpenROAD"
*VERSION "341650e72dad0dc8571822ff8c5d9c5e365327f7"
*DESIGN_FLOW "NAME_SCOPE LOCAL" "PIN_CAP NONE"
*DIVIDER /
*DELIMITER :
*BUS_DELIMITER []
*T_UNIT 1 NS
*C_UNIT 1 PF
*R_UNIT 1 OHM
*L_UNIT 1 HENRY

*NAME_MAP
*1 A_I_top
*2 A_O_top
*3 A_T_top
*4 B_I_top
*5 B_O_top
*6 B_T_top
*7 E1BEG[0]
*8 E1BEG[1]
*9 E1BEG[2]
*10 E1BEG[3]
*11 E2BEG[0]
*12 E2BEG[1]
*13 E2BEG[2]
*14 E2BEG[3]
*15 E2BEG[4]
*16 E2BEG[5]
*17 E2BEG[6]
*18 E2BEG[7]
*19 E2BEGb[0]
*20 E2BEGb[1]
*21 E2BEGb[2]
*22 E2BEGb[3]
*23 E2BEGb[4]
*24 E2BEGb[5]
*25 E2BEGb[6]
*26 E2BEGb[7]
*27 E6BEG[0]
*28 E6BEG[10]
*29 E6BEG[11]
*30 E6BEG[1]
*31 E6BEG[2]
*32 E6BEG[3]
*33 E6BEG[4]
*34 E6BEG[5]
*35 E6BEG[6]
*36 E6BEG[7]
*37 E6BEG[8]
*38 E6BEG[9]
*39 EE4BEG[0]
*40 EE4BEG[10]
*41 EE4BEG[11]
*42 EE4BEG[12]
*43 EE4BEG[13]
*44 EE4BEG[14]
*45 EE4BEG[15]
*46 EE4BEG[1]
*47 EE4BEG[2]
*48 EE4BEG[3]
*49 EE4BEG[4]
*50 EE4BEG[5]
*51 EE4BEG[6]
*52 EE4BEG[7]
*53 EE4BEG[8]
*54 EE4BEG[9]
*55 FrameData[0]
*56 FrameData[10]
*57 FrameData[11]
*58 FrameData[12]
*59 FrameData[13]
*60 FrameData[14]
*61 FrameData[15]
*62 FrameData[16]
*63 FrameData[17]
*64 FrameData[18]
*65 FrameData[19]
*66 FrameData[1]
*67 FrameData[20]
*68 FrameData[21]
*69 FrameData[22]
*70 FrameData[23]
*71 FrameData[24]
*72 FrameData[25]
*73 FrameData[26]
*74 FrameData[27]
*75 FrameData[28]
*76 FrameData[29]
*77 FrameData[2]
*78 FrameData[30]
*79 FrameData[31]
*80 FrameData[3]
*81 FrameData[4]
*82 FrameData[5]
*83 FrameData[6]
*84 FrameData[7]
*85 FrameData[8]
*86 FrameData[9]
*87 FrameData_O[0]
*88 FrameData_O[10]
*89 FrameData_O[11]
*90 FrameData_O[12]
*91 FrameData_O[13]
*92 FrameData_O[14]
*93 FrameData_O[15]
*94 FrameData_O[16]
*95 FrameData_O[17]
*96 FrameData_O[18]
*97 FrameData_O[19]
*98 FrameData_O[1]
*99 FrameData_O[20]
*100 FrameData_O[21]
*101 FrameData_O[22]
*102 FrameData_O[23]
*103 FrameData_O[24]
*104 FrameData_O[25]
*105 FrameData_O[26]
*106 FrameData_O[27]
*107 FrameData_O[28]
*108 FrameData_O[29]
*109 FrameData_O[2]
*110 FrameData_O[30]
*111 FrameData_O[31]
*112 FrameData_O[3]
*113 FrameData_O[4]
*114 FrameData_O[5]
*115 FrameData_O[6]
*116 FrameData_O[7]
*117 FrameData_O[8]
*118 FrameData_O[9]
*119 FrameStrobe[0]
*120 FrameStrobe[10]
*121 FrameStrobe[11]
*122 FrameStrobe[12]
*123 FrameStrobe[13]
*124 FrameStrobe[14]
*125 FrameStrobe[15]
*126 FrameStrobe[16]
*127 FrameStrobe[17]
*128 FrameStrobe[18]
*129 FrameStrobe[19]
*130 FrameStrobe[1]
*131 FrameStrobe[2]
*132 FrameStrobe[3]
*133 FrameStrobe[4]
*134 FrameStrobe[5]
*135 FrameStrobe[6]
*136 FrameStrobe[7]
*137 FrameStrobe[8]
*138 FrameStrobe[9]
*139 FrameStrobe_O[0]
*140 FrameStrobe_O[10]
*141 FrameStrobe_O[11]
*142 FrameStrobe_O[12]
*143 FrameStrobe_O[13]
*144 FrameStrobe_O[14]
*145 FrameStrobe_O[15]
*146 FrameStrobe_O[16]
*147 FrameStrobe_O[17]
*148 FrameStrobe_O[18]
*149 FrameStrobe_O[19]
*150 FrameStrobe_O[1]
*151 FrameStrobe_O[2]
*152 FrameStrobe_O[3]
*153 FrameStrobe_O[4]
*154 FrameStrobe_O[5]
*155 FrameStrobe_O[6]
*156 FrameStrobe_O[7]
*157 FrameStrobe_O[8]
*158 FrameStrobe_O[9]
*159 UserCLK
*160 UserCLKo
*163 W1END[0]
*164 W1END[1]
*165 W1END[2]
*166 W1END[3]
*167 W2END[0]
*168 W2END[1]
*169 W2END[2]
*170 W2END[3]
*171 W2END[4]
*172 W2END[5]
*173 W2END[6]
*174 W2END[7]
*175 W2MID[0]
*176 W2MID[1]
*177 W2MID[2]
*178 W2MID[3]
*179 W2MID[4]
*180 W2MID[5]
*181 W2MID[6]
*182 W2MID[7]
*183 W6END[0]
*184 W6END[10]
*185 W6END[11]
*186 W6END[1]
*187 W6END[2]
*188 W6END[3]
*189 W6END[4]
*190 W6END[5]
*191 W6END[6]
*192 W6END[7]
*193 W6END[8]
*194 W6END[9]
*195 WW4END[0]
*196 WW4END[10]
*197 WW4END[11]
*198 WW4END[12]
*199 WW4END[13]
*200 WW4END[14]
*201 WW4END[15]
*202 WW4END[1]
*203 WW4END[2]
*204 WW4END[3]
*205 WW4END[4]
*206 WW4END[5]
*207 WW4END[6]
*208 WW4END[7]
*209 WW4END[8]
*210 WW4END[9]
*211 Inst_A_IO_1_bidirectional_frame_config_pass\.Q
*212 Inst_B_IO_1_bidirectional_frame_config_pass\.Q
*213 Inst_W_IO_ConfigMem\.Inst_frame0_bit0\.Q
*214 Inst_W_IO_ConfigMem\.Inst_frame0_bit1\.Q
*215 Inst_W_IO_ConfigMem\.Inst_frame0_bit10\.Q
*216 Inst_W_IO_ConfigMem\.Inst_frame0_bit11\.Q
*217 Inst_W_IO_ConfigMem\.Inst_frame0_bit12\.Q
*218 Inst_W_IO_ConfigMem\.Inst_frame0_bit13\.Q
*219 Inst_W_IO_ConfigMem\.Inst_frame0_bit14\.Q
*220 Inst_W_IO_ConfigMem\.Inst_frame0_bit15\.Q
*221 Inst_W_IO_ConfigMem\.Inst_frame0_bit16\.Q
*222 Inst_W_IO_ConfigMem\.Inst_frame0_bit17\.Q
*223 Inst_W_IO_ConfigMem\.Inst_frame0_bit18\.Q
*224 Inst_W_IO_ConfigMem\.Inst_frame0_bit19\.Q
*225 Inst_W_IO_ConfigMem\.Inst_frame0_bit2\.Q
*226 Inst_W_IO_ConfigMem\.Inst_frame0_bit20\.Q
*227 Inst_W_IO_ConfigMem\.Inst_frame0_bit21\.Q
*228 Inst_W_IO_ConfigMem\.Inst_frame0_bit22\.Q
*229 Inst_W_IO_ConfigMem\.Inst_frame0_bit23\.Q
*230 Inst_W_IO_ConfigMem\.Inst_frame0_bit24\.Q
*231 Inst_W_IO_ConfigMem\.Inst_frame0_bit25\.Q
*232 Inst_W_IO_ConfigMem\.Inst_frame0_bit26\.Q
*233 Inst_W_IO_ConfigMem\.Inst_frame0_bit27\.Q
*234 Inst_W_IO_ConfigMem\.Inst_frame0_bit28\.Q
*235 Inst_W_IO_ConfigMem\.Inst_frame0_bit29\.Q
*236 Inst_W_IO_ConfigMem\.Inst_frame0_bit3\.Q
*237 Inst_W_IO_ConfigMem\.Inst_frame0_bit30\.Q
*238 Inst_W_IO_ConfigMem\.Inst_frame0_bit31\.Q
*239 Inst_W_IO_ConfigMem\.Inst_frame0_bit4\.Q
*240 Inst_W_IO_ConfigMem\.Inst_frame0_bit5\.Q
*241 Inst_W_IO_ConfigMem\.Inst_frame0_bit6\.Q
*242 Inst_W_IO_ConfigMem\.Inst_frame0_bit7\.Q
*243 Inst_W_IO_ConfigMem\.Inst_frame0_bit8\.Q
*244 Inst_W_IO_ConfigMem\.Inst_frame0_bit9\.Q
*245 Inst_W_IO_ConfigMem\.Inst_frame1_bit0\.Q
*246 Inst_W_IO_ConfigMem\.Inst_frame1_bit1\.Q
*247 Inst_W_IO_ConfigMem\.Inst_frame1_bit10\.Q
*248 Inst_W_IO_ConfigMem\.Inst_frame1_bit11\.Q
*249 Inst_W_IO_ConfigMem\.Inst_frame1_bit12\.Q
*250 Inst_W_IO_ConfigMem\.Inst_frame1_bit13\.Q
*251 Inst_W_IO_ConfigMem\.Inst_frame1_bit14\.Q
*252 Inst_W_IO_ConfigMem\.Inst_frame1_bit15\.Q
*253 Inst_W_IO_ConfigMem\.Inst_frame1_bit16\.Q
*254 Inst_W_IO_ConfigMem\.Inst_frame1_bit17\.Q
*255 Inst_W_IO_ConfigMem\.Inst_frame1_bit18\.Q
*256 Inst_W_IO_ConfigMem\.Inst_frame1_bit19\.Q
*257 Inst_W_IO_ConfigMem\.Inst_frame1_bit2\.Q
*258 Inst_W_IO_ConfigMem\.Inst_frame1_bit20\.Q
*259 Inst_W_IO_ConfigMem\.Inst_frame1_bit21\.Q
*260 Inst_W_IO_ConfigMem\.Inst_frame1_bit22\.Q
*261 Inst_W_IO_ConfigMem\.Inst_frame1_bit23\.Q
*262 Inst_W_IO_ConfigMem\.Inst_frame1_bit24\.Q
*263 Inst_W_IO_ConfigMem\.Inst_frame1_bit25\.Q
*264 Inst_W_IO_ConfigMem\.Inst_frame1_bit26\.Q
*265 Inst_W_IO_ConfigMem\.Inst_frame1_bit27\.Q
*266 Inst_W_IO_ConfigMem\.Inst_frame1_bit28\.Q
*267 Inst_W_IO_ConfigMem\.Inst_frame1_bit29\.Q
*268 Inst_W_IO_ConfigMem\.Inst_frame1_bit3\.Q
*269 Inst_W_IO_ConfigMem\.Inst_frame1_bit30\.Q
*270 Inst_W_IO_ConfigMem\.Inst_frame1_bit31\.Q
*271 Inst_W_IO_ConfigMem\.Inst_frame1_bit4\.Q
*272 Inst_W_IO_ConfigMem\.Inst_frame1_bit5\.Q
*273 Inst_W_IO_ConfigMem\.Inst_frame1_bit6\.Q
*274 Inst_W_IO_ConfigMem\.Inst_frame1_bit7\.Q
*275 Inst_W_IO_ConfigMem\.Inst_frame1_bit8\.Q
*276 Inst_W_IO_ConfigMem\.Inst_frame1_bit9\.Q
*277 Inst_W_IO_ConfigMem\.Inst_frame2_bit0\.Q
*278 Inst_W_IO_ConfigMem\.Inst_frame2_bit1\.Q
*279 Inst_W_IO_ConfigMem\.Inst_frame2_bit10\.Q
*280 Inst_W_IO_ConfigMem\.Inst_frame2_bit11\.Q
*281 Inst_W_IO_ConfigMem\.Inst_frame2_bit12\.Q
*282 Inst_W_IO_ConfigMem\.Inst_frame2_bit13\.Q
*283 Inst_W_IO_ConfigMem\.Inst_frame2_bit14\.Q
*284 Inst_W_IO_ConfigMem\.Inst_frame2_bit15\.Q
*285 Inst_W_IO_ConfigMem\.Inst_frame2_bit16\.Q
*286 Inst_W_IO_ConfigMem\.Inst_frame2_bit17\.Q
*287 Inst_W_IO_ConfigMem\.Inst_frame2_bit18\.Q
*288 Inst_W_IO_ConfigMem\.Inst_frame2_bit19\.Q
*289 Inst_W_IO_ConfigMem\.Inst_frame2_bit2\.Q
*290 Inst_W_IO_ConfigMem\.Inst_frame2_bit20\.Q
*291 Inst_W_IO_ConfigMem\.Inst_frame2_bit21\.Q
*292 Inst_W_IO_ConfigMem\.Inst_frame2_bit22\.Q
*293 Inst_W_IO_ConfigMem\.Inst_frame2_bit23\.Q
*294 Inst_W_IO_ConfigMem\.Inst_frame2_bit24\.Q
*295 Inst_W_IO_ConfigMem\.Inst_frame2_bit25\.Q
*296 Inst_W_IO_ConfigMem\.Inst_frame2_bit26\.Q
*297 Inst_W_IO_ConfigMem\.Inst_frame2_bit27\.Q
*298 Inst_W_IO_ConfigMem\.Inst_frame2_bit28\.Q
*299 Inst_W_IO_ConfigMem\.Inst_frame2_bit29\.Q
*300 Inst_W_IO_ConfigMem\.Inst_frame2_bit3\.Q
*301 Inst_W_IO_ConfigMem\.Inst_frame2_bit30\.Q
*302 Inst_W_IO_ConfigMem\.Inst_frame2_bit31\.Q
*303 Inst_W_IO_ConfigMem\.Inst_frame2_bit4\.Q
*304 Inst_W_IO_ConfigMem\.Inst_frame2_bit5\.Q
*305 Inst_W_IO_ConfigMem\.Inst_frame2_bit6\.Q
*306 Inst_W_IO_ConfigMem\.Inst_frame2_bit7\.Q
*307 Inst_W_IO_ConfigMem\.Inst_frame2_bit8\.Q
*308 Inst_W_IO_ConfigMem\.Inst_frame2_bit9\.Q
*309 Inst_W_IO_ConfigMem\.Inst_frame3_bit22\.Q
*310 Inst_W_IO_ConfigMem\.Inst_frame3_bit23\.Q
*311 Inst_W_IO_ConfigMem\.Inst_frame3_bit24\.Q
*312 Inst_W_IO_ConfigMem\.Inst_frame3_bit25\.Q
*313 Inst_W_IO_ConfigMem\.Inst_frame3_bit26\.Q
*314 Inst_W_IO_ConfigMem\.Inst_frame3_bit27\.Q
*315 Inst_W_IO_ConfigMem\.Inst_frame3_bit28\.Q
*316 Inst_W_IO_ConfigMem\.Inst_frame3_bit29\.Q
*317 Inst_W_IO_ConfigMem\.Inst_frame3_bit30\.Q
*318 Inst_W_IO_ConfigMem\.Inst_frame3_bit31\.Q
*319 Inst_W_IO_switch_matrix\.E1BEG0
*320 Inst_W_IO_switch_matrix\.E1BEG1
*321 Inst_W_IO_switch_matrix\.E1BEG2
*322 Inst_W_IO_switch_matrix\.E1BEG3
*323 Inst_W_IO_switch_matrix\.E2BEG0
*324 Inst_W_IO_switch_matrix\.E2BEG1
*325 Inst_W_IO_switch_matrix\.E2BEG2
*326 Inst_W_IO_switch_matrix\.E2BEG3
*327 Inst_W_IO_switch_matrix\.E2BEG4
*328 Inst_W_IO_switch_matrix\.E2BEG5
*329 Inst_W_IO_switch_matrix\.E2BEG6
*330 Inst_W_IO_switch_matrix\.E2BEG7
*331 Inst_W_IO_switch_matrix\.E2BEGb0
*332 Inst_W_IO_switch_matrix\.E2BEGb1
*333 Inst_W_IO_switch_matrix\.E2BEGb2
*334 Inst_W_IO_switch_matrix\.E2BEGb3
*335 Inst_W_IO_switch_matrix\.E2BEGb4
*336 Inst_W_IO_switch_matrix\.E2BEGb5
*337 Inst_W_IO_switch_matrix\.E2BEGb6
*338 Inst_W_IO_switch_matrix\.E2BEGb7
*339 Inst_W_IO_switch_matrix\.E6BEG0
*340 Inst_W_IO_switch_matrix\.E6BEG1
*341 Inst_W_IO_switch_matrix\.E6BEG10
*342 Inst_W_IO_switch_matrix\.E6BEG11
*343 Inst_W_IO_switch_matrix\.E6BEG2
*344 Inst_W_IO_switch_matrix\.E6BEG3
*345 Inst_W_IO_switch_matrix\.E6BEG4
*346 Inst_W_IO_switch_matrix\.E6BEG5
*347 Inst_W_IO_switch_matrix\.E6BEG6
*348 Inst_W_IO_switch_matrix\.E6BEG7
*349 Inst_W_IO_switch_matrix\.E6BEG8
*350 Inst_W_IO_switch_matrix\.E6BEG9
*351 Inst_W_IO_switch_matrix\.EE4BEG0
*352 Inst_W_IO_switch_matrix\.EE4BEG1
*353 Inst_W_IO_switch_matrix\.EE4BEG10
*354 Inst_W_IO_switch_matrix\.EE4BEG11
*355 Inst_W_IO_switch_matrix\.EE4BEG12
*356 Inst_W_IO_switch_matrix\.EE4BEG13
*357 Inst_W_IO_switch_matrix\.EE4BEG14
*358 Inst_W_IO_switch_matrix\.EE4BEG15
*359 Inst_W_IO_switch_matrix\.EE4BEG2
*360 Inst_W_IO_switch_matrix\.EE4BEG3
*361 Inst_W_IO_switch_matrix\.EE4BEG4
*362 Inst_W_IO_switch_matrix\.EE4BEG5
*363 Inst_W_IO_switch_matrix\.EE4BEG6
*364 Inst_W_IO_switch_matrix\.EE4BEG7
*365 Inst_W_IO_switch_matrix\.EE4BEG8
*366 Inst_W_IO_switch_matrix\.EE4BEG9
*367 UserCLK_regs
*368 _000_
*369 _001_
*370 _002_
*371 _003_
*372 _004_
*373 _005_
*374 _006_
*375 _007_
*376 _008_
*377 _009_
*378 _010_
*379 _011_
*380 _012_
*381 _013_
*382 _014_
*383 _015_
*384 _016_
*385 _017_
*386 _018_
*387 _019_
*388 _020_
*389 _021_
*390 _022_
*391 _023_
*392 _024_
*393 _025_
*394 _026_
*395 _027_
*396 _028_
*397 _029_
*398 _030_
*399 _031_
*400 _032_
*401 _033_
*402 _034_
*403 _035_
*404 _036_
*405 _037_
*406 _038_
*407 _039_
*408 _040_
*409 _041_
*410 clknet_0_UserCLK
*411 clknet_0_UserCLK_regs
*412 clknet_1_0__leaf_UserCLK
*413 clknet_1_0__leaf_UserCLK_regs
*414 clknet_1_1__leaf_UserCLK_regs
*415 net1
*416 net10
*417 net100
*418 net101
*419 net102
*420 net103
*421 net104
*422 net105
*423 net106
*424 net107
*425 net108
*426 net109
*427 net11
*428 net110
*429 net111
*430 net112
*431 net113
*432 net114
*433 net115
*434 net116
*435 net117
*436 net118
*437 net119
*438 net12
*439 net120
*440 net121
*441 net122
*442 net13
*443 net14
*444 net15
*445 net16
*446 net17
*447 net18
*448 net19
*449 net2
*450 net20
*451 net21
*452 net22
*453 net23
*454 net24
*455 net25
*456 net26
*457 net27
*458 net28
*459 net29
*460 net3
*461 net30
*462 net31
*463 net32
*464 net33
*465 net34
*466 net35
*467 net36
*468 net37
*469 net38
*470 net39
*471 net4
*472 net40
*473 net41
*474 net42
*475 net43
*476 net44
*477 net45
*478 net46
*479 net47
*480 net48
*481 net49
*482 net5
*483 net50
*484 net51
*485 net52
*486 net53
*487 net54
*488 net55
*489 net56
*490 net57
*491 net58
*492 net59
*493 net6
*494 net60
*495 net61
*496 net62
*497 net63
*498 net64
*499 net65
*500 net66
*501 net67
*502 net68
*503 net69
*504 net7
*505 net70
*506 net71
*507 net72
*508 net73
*509 net74
*510 net75
*511 net76
*512 net77
*513 net78
*514 net79
*515 net8
*516 net80
*517 net81
*518 net82
*519 net83
*520 net84
*521 net85
*522 net86
*523 net87
*524 net88
*525 net89
*526 net9
*527 net90
*528 net91
*529 net92
*530 net93
*531 net94
*532 net95
*533 net96
*534 net97
*535 net98
*536 net99
*537 FILLER_0_104
*538 FILLER_0_138
*539 FILLER_0_172
*540 FILLER_0_2
*541 FILLER_0_206
*542 FILLER_0_240
*543 FILLER_0_36
*544 FILLER_0_70
*545 FILLER_10_104
*546 FILLER_10_107
*547 FILLER_10_171
*548 FILLER_10_177
*549 FILLER_10_2
*550 FILLER_10_34
*551 FILLER_10_37
*552 FILLER_10_53
*553 FILLER_10_55
*554 FILLER_10_96
*555 FILLER_11_115
*556 FILLER_11_131
*557 FILLER_11_139
*558 FILLER_11_142
*559 FILLER_11_16
*560 FILLER_11_206
*561 FILLER_11_212
*562 FILLER_11_228
*563 FILLER_11_236
*564 FILLER_11_240
*565 FILLER_11_32
*566 FILLER_11_34
*567 FILLER_11_43
*568 FILLER_11_51
*569 FILLER_11_63
*570 FILLER_11_67
*571 FILLER_11_69
*572 FILLER_11_72
*573 FILLER_11_80
*574 FILLER_11_82
*575 FILLER_12_107
*576 FILLER_12_111
*577 FILLER_12_129
*578 FILLER_12_161
*579 FILLER_12_169
*580 FILLER_12_173
*581 FILLER_12_177
*582 FILLER_12_2
*583 FILLER_12_34
*584 FILLER_12_37
*585 FILLER_12_39
*586 FILLER_12_48
*587 FILLER_12_52
*588 FILLER_13_113
*589 FILLER_13_117
*590 FILLER_13_133
*591 FILLER_13_137
*592 FILLER_13_139
*593 FILLER_13_142
*594 FILLER_13_206
*595 FILLER_13_212
*596 FILLER_13_228
*597 FILLER_13_236
*598 FILLER_13_24
*599 FILLER_13_240
*600 FILLER_13_28
*601 FILLER_13_72
*602 FILLER_13_80
*603 FILLER_14_139
*604 FILLER_14_171
*605 FILLER_14_177
*606 FILLER_14_26
*607 FILLER_14_34
*608 FILLER_14_37
*609 FILLER_14_49
*610 FILLER_15_110
*611 FILLER_15_118
*612 FILLER_15_134
*613 FILLER_15_142
*614 FILLER_15_2
*615 FILLER_15_206
*616 FILLER_15_212
*617 FILLER_15_228
*618 FILLER_15_236
*619 FILLER_15_240
*620 FILLER_15_92
*621 FILLER_16_103
*622 FILLER_16_107
*623 FILLER_16_151
*624 FILLER_16_167
*625 FILLER_16_177
*626 FILLER_16_2
*627 FILLER_16_71
*628 FILLER_16_95
*629 FILLER_17_113
*630 FILLER_17_154
*631 FILLER_17_186
*632 FILLER_17_2
*633 FILLER_17_202
*634 FILLER_17_212
*635 FILLER_17_228
*636 FILLER_17_236
*637 FILLER_17_240
*638 FILLER_17_26
*639 FILLER_17_30
*640 FILLER_17_32
*641 FILLER_17_65
*642 FILLER_17_69
*643 FILLER_17_72
*644 FILLER_17_97
*645 FILLER_18_103
*646 FILLER_18_107
*647 FILLER_18_111
*648 FILLER_18_118
*649 FILLER_18_122
*650 FILLER_18_124
*651 FILLER_18_163
*652 FILLER_18_171
*653 FILLER_18_177
*654 FILLER_18_2
*655 FILLER_18_29
*656 FILLER_18_33
*657 FILLER_18_37
*658 FILLER_18_41
*659 FILLER_18_6
*660 FILLER_18_8
*661 FILLER_19_121
*662 FILLER_19_162
*663 FILLER_19_194
*664 FILLER_19_2
*665 FILLER_19_212
*666 FILLER_19_228
*667 FILLER_19_236
*668 FILLER_19_240
*669 FILLER_19_6
*670 FILLER_19_69
*671 FILLER_19_72
*672 FILLER_19_8
*673 FILLER_1_136
*674 FILLER_1_142
*675 FILLER_1_2
*676 FILLER_1_206
*677 FILLER_1_212
*678 FILLER_1_228
*679 FILLER_1_236
*680 FILLER_1_240
*681 FILLER_1_66
*682 FILLER_1_72
*683 FILLER_20_113
*684 FILLER_20_115
*685 FILLER_20_158
*686 FILLER_20_174
*687 FILLER_20_177
*688 FILLER_20_18
*689 FILLER_20_26
*690 FILLER_20_71
*691 FILLER_20_79
*692 FILLER_21_101
*693 FILLER_21_142
*694 FILLER_21_206
*695 FILLER_21_212
*696 FILLER_21_228
*697 FILLER_21_236
*698 FILLER_21_240
*699 FILLER_21_72
*700 FILLER_21_76
*701 FILLER_21_97
*702 FILLER_22_103
*703 FILLER_22_107
*704 FILLER_22_111
*705 FILLER_22_127
*706 FILLER_22_152
*707 FILLER_22_160
*708 FILLER_22_170
*709 FILLER_22_174
*710 FILLER_22_177
*711 FILLER_22_24
*712 FILLER_22_26
*713 FILLER_22_37
*714 FILLER_22_61
*715 FILLER_23_148
*716 FILLER_23_180
*717 FILLER_23_196
*718 FILLER_23_2
*719 FILLER_23_204
*720 FILLER_23_208
*721 FILLER_23_212
*722 FILLER_23_228
*723 FILLER_23_236
*724 FILLER_23_240
*725 FILLER_23_26
*726 FILLER_23_48
*727 FILLER_23_72
*728 FILLER_24_122
*729 FILLER_24_141
*730 FILLER_24_149
*731 FILLER_24_173
*732 FILLER_24_177
*733 FILLER_24_30
*734 FILLER_24_34
*735 FILLER_24_37
*736 FILLER_24_41
*737 FILLER_24_91
*738 FILLER_25_148
*739 FILLER_25_184
*740 FILLER_25_2
*741 FILLER_25_200
*742 FILLER_25_208
*743 FILLER_25_212
*744 FILLER_25_228
*745 FILLER_25_236
*746 FILLER_25_240
*747 FILLER_25_4
*748 FILLER_25_45
*749 FILLER_25_67
*750 FILLER_25_69
*751 FILLER_25_72
*752 FILLER_25_76
*753 FILLER_26_173
*754 FILLER_26_177
*755 FILLER_26_2
*756 FILLER_26_209
*757 FILLER_26_225
*758 FILLER_26_37
*759 FILLER_26_6
*760 FILLER_27_104
*761 FILLER_27_146
*762 FILLER_27_167
*763 FILLER_27_199
*764 FILLER_27_2
*765 FILLER_27_207
*766 FILLER_27_209
*767 FILLER_27_212
*768 FILLER_27_31
*769 FILLER_27_35
*770 FILLER_27_69
*771 FILLER_28_167
*772 FILLER_28_177
*773 FILLER_28_2
*774 FILLER_28_209
*775 FILLER_28_225
*776 FILLER_28_31
*777 FILLER_28_37
*778 FILLER_28_41
*779 FILLER_28_91
*780 FILLER_29_139
*781 FILLER_29_162
*782 FILLER_29_174
*783 FILLER_29_2
*784 FILLER_29_206
*785 FILLER_29_212
*786 FILLER_29_66
*787 FILLER_29_72
*788 FILLER_29_84
*789 FILLER_29_86
*790 FILLER_2_101
*791 FILLER_2_107
*792 FILLER_2_171
*793 FILLER_2_177
*794 FILLER_2_2
*795 FILLER_2_34
*796 FILLER_2_37
*797 FILLER_30_107
*798 FILLER_30_160
*799 FILLER_30_170
*800 FILLER_30_174
*801 FILLER_30_177
*802 FILLER_30_2
*803 FILLER_30_209
*804 FILLER_30_37
*805 FILLER_30_41
*806 FILLER_30_51
*807 FILLER_30_59
*808 FILLER_30_92
*809 FILLER_30_96
*810 FILLER_30_98
*811 FILLER_31_10
*812 FILLER_31_132
*813 FILLER_31_142
*814 FILLER_31_146
*815 FILLER_31_148
*816 FILLER_31_181
*817 FILLER_31_197
*818 FILLER_31_2
*819 FILLER_31_205
*820 FILLER_31_209
*821 FILLER_31_212
*822 FILLER_31_43
*823 FILLER_31_67
*824 FILLER_31_69
*825 FILLER_31_80
*826 FILLER_32_103
*827 FILLER_32_115
*828 FILLER_32_117
*829 FILLER_32_126
*830 FILLER_32_134
*831 FILLER_32_158
*832 FILLER_32_162
*833 FILLER_32_172
*834 FILLER_32_174
*835 FILLER_32_177
*836 FILLER_32_2
*837 FILLER_32_209
*838 FILLER_32_225
*839 FILLER_32_34
*840 FILLER_32_37
*841 FILLER_32_53
*842 FILLER_32_57
*843 FILLER_32_79
*844 FILLER_32_95
*845 FILLER_33_142
*846 FILLER_33_170
*847 FILLER_33_202
*848 FILLER_33_212
*849 FILLER_33_22
*850 FILLER_33_30
*851 FILLER_33_34
*852 FILLER_33_55
*853 FILLER_33_63
*854 FILLER_33_67
*855 FILLER_33_69
*856 FILLER_33_72
*857 FILLER_33_80
*858 FILLER_34_10
*859 FILLER_34_107
*860 FILLER_34_111
*861 FILLER_34_113
*862 FILLER_34_14
*863 FILLER_34_146
*864 FILLER_34_177
*865 FILLER_34_209
*866 FILLER_34_69
*867 FILLER_35_142
*868 FILLER_35_150
*869 FILLER_35_154
*870 FILLER_35_156
*871 FILLER_35_189
*872 FILLER_35_205
*873 FILLER_35_209
*874 FILLER_35_212
*875 FILLER_35_220
*876 FILLER_35_224
*877 FILLER_35_226
*878 FILLER_35_72
*879 FILLER_36_107
*880 FILLER_36_111
*881 FILLER_36_173
*882 FILLER_36_177
*883 FILLER_36_209
*884 FILLER_36_22
*885 FILLER_36_225
*886 FILLER_36_30
*887 FILLER_36_34
*888 FILLER_36_57
*889 FILLER_36_65
*890 FILLER_36_87
*891 FILLER_36_95
*892 FILLER_37_109
*893 FILLER_37_117
*894 FILLER_37_127
*895 FILLER_37_131
*896 FILLER_37_162
*897 FILLER_37_194
*898 FILLER_37_212
*899 FILLER_37_220
*900 FILLER_37_224
*901 FILLER_37_226
*902 FILLER_37_24
*903 FILLER_37_32
*904 FILLER_37_36
*905 FILLER_37_72
*906 FILLER_37_76
*907 FILLER_38_102
*908 FILLER_38_104
*909 FILLER_38_107
*910 FILLER_38_115
*911 FILLER_38_117
*912 FILLER_38_138
*913 FILLER_38_174
*914 FILLER_38_177
*915 FILLER_38_2
*916 FILLER_38_209
*917 FILLER_38_37
*918 FILLER_38_45
*919 FILLER_38_47
*920 FILLER_38_84
*921 FILLER_38_93
*922 FILLER_39_132
*923 FILLER_39_174
*924 FILLER_39_2
*925 FILLER_39_206
*926 FILLER_39_212
*927 FILLER_39_41
*928 FILLER_39_49
*929 FILLER_39_53
*930 FILLER_39_55
*931 FILLER_39_6
*932 FILLER_39_8
*933 FILLER_39_80
*934 FILLER_39_96
*935 FILLER_3_136
*936 FILLER_3_142
*937 FILLER_3_2
*938 FILLER_3_206
*939 FILLER_3_212
*940 FILLER_3_228
*941 FILLER_3_236
*942 FILLER_3_240
*943 FILLER_3_66
*944 FILLER_3_72
*945 FILLER_40_107
*946 FILLER_40_124
*947 FILLER_40_126
*948 FILLER_40_170
*949 FILLER_40_174
*950 FILLER_40_177
*951 FILLER_40_2
*952 FILLER_40_209
*953 FILLER_40_225
*954 FILLER_40_34
*955 FILLER_40_37
*956 FILLER_40_45
*957 FILLER_40_81
*958 FILLER_41_117
*959 FILLER_41_121
*960 FILLER_41_131
*961 FILLER_41_139
*962 FILLER_41_142
*963 FILLER_41_171
*964 FILLER_41_203
*965 FILLER_41_207
*966 FILLER_41_209
*967 FILLER_41_212
*968 FILLER_41_22
*969 FILLER_41_38
*970 FILLER_41_40
*971 FILLER_41_69
*972 FILLER_41_72
*973 FILLER_41_96
*974 FILLER_42_103
*975 FILLER_42_107
*976 FILLER_42_123
*977 FILLER_42_174
*978 FILLER_42_177
*979 FILLER_42_2
*980 FILLER_42_209
*981 FILLER_42_57
*982 FILLER_42_79
*983 FILLER_42_95
*984 FILLER_43_137
*985 FILLER_43_139
*986 FILLER_43_178
*987 FILLER_43_2
*988 FILLER_43_212
*989 FILLER_43_35
*990 FILLER_43_37
*991 FILLER_43_6
*992 FILLER_43_72
*993 FILLER_43_80
*994 FILLER_43_84
*995 FILLER_44_10
*996 FILLER_44_103
*997 FILLER_44_14
*998 FILLER_44_165
*999 FILLER_44_173
*1000 FILLER_44_177
*1001 FILLER_44_2
*1002 FILLER_44_209
*1003 FILLER_44_225
*1004 FILLER_44_37
*1005 FILLER_44_41
*1006 FILLER_45_139
*1007 FILLER_45_164
*1008 FILLER_45_196
*1009 FILLER_45_204
*1010 FILLER_45_208
*1011 FILLER_45_212
*1012 FILLER_45_42
*1013 FILLER_45_46
*1014 FILLER_45_56
*1015 FILLER_45_60
*1016 FILLER_45_92
*1017 FILLER_46_100
*1018 FILLER_46_104
*1019 FILLER_46_107
*1020 FILLER_46_123
*1021 FILLER_46_177
*1022 FILLER_46_18
*1023 FILLER_46_209
*1024 FILLER_46_34
*1025 FILLER_46_57
*1026 FILLER_46_59
*1027 FILLER_46_92
*1028 FILLER_47_134
*1029 FILLER_47_138
*1030 FILLER_47_178
*1031 FILLER_47_212
*1032 FILLER_47_22
*1033 FILLER_47_30
*1034 FILLER_47_32
*1035 FILLER_47_61
*1036 FILLER_47_72
*1037 FILLER_48_107
*1038 FILLER_48_116
*1039 FILLER_48_124
*1040 FILLER_48_177
*1041 FILLER_48_2
*1042 FILLER_48_209
*1043 FILLER_48_225
*1044 FILLER_48_37
*1045 FILLER_48_6
*1046 FILLER_48_61
*1047 FILLER_48_77
*1048 FILLER_49_127
*1049 FILLER_49_135
*1050 FILLER_49_139
*1051 FILLER_49_192
*1052 FILLER_49_2
*1053 FILLER_49_208
*1054 FILLER_49_212
*1055 FILLER_49_24
*1056 FILLER_49_32
*1057 FILLER_49_36
*1058 FILLER_49_6
*1059 FILLER_49_72
*1060 FILLER_49_74
*1061 FILLER_4_101
*1062 FILLER_4_107
*1063 FILLER_4_171
*1064 FILLER_4_177
*1065 FILLER_4_2
*1066 FILLER_4_34
*1067 FILLER_4_37
*1068 FILLER_50_102
*1069 FILLER_50_104
*1070 FILLER_50_107
*1071 FILLER_50_116
*1072 FILLER_50_124
*1073 FILLER_50_161
*1074 FILLER_50_169
*1075 FILLER_50_173
*1076 FILLER_50_177
*1077 FILLER_50_2
*1078 FILLER_50_209
*1079 FILLER_50_37
*1080 FILLER_50_45
*1081 FILLER_50_49
*1082 FILLER_50_6
*1083 FILLER_50_90
*1084 FILLER_50_98
*1085 FILLER_51_102
*1086 FILLER_51_134
*1087 FILLER_51_138
*1088 FILLER_51_142
*1089 FILLER_51_18
*1090 FILLER_51_2
*1091 FILLER_51_206
*1092 FILLER_51_212
*1093 FILLER_51_46
*1094 FILLER_51_55
*1095 FILLER_51_63
*1096 FILLER_51_67
*1097 FILLER_51_69
*1098 FILLER_51_80
*1099 FILLER_52_101
*1100 FILLER_52_107
*1101 FILLER_52_123
*1102 FILLER_52_177
*1103 FILLER_52_18
*1104 FILLER_52_2
*1105 FILLER_52_209
*1106 FILLER_52_22
*1107 FILLER_52_225
*1108 FILLER_52_24
*1109 FILLER_52_33
*1110 FILLER_52_37
*1111 FILLER_53_136
*1112 FILLER_53_142
*1113 FILLER_53_2
*1114 FILLER_53_206
*1115 FILLER_53_212
*1116 FILLER_53_66
*1117 FILLER_53_72
*1118 FILLER_54_101
*1119 FILLER_54_107
*1120 FILLER_54_171
*1121 FILLER_54_177
*1122 FILLER_54_2
*1123 FILLER_54_209
*1124 FILLER_54_34
*1125 FILLER_54_37
*1126 FILLER_55_136
*1127 FILLER_55_142
*1128 FILLER_55_2
*1129 FILLER_55_206
*1130 FILLER_55_212
*1131 FILLER_55_66
*1132 FILLER_55_72
*1133 FILLER_56_101
*1134 FILLER_56_107
*1135 FILLER_56_171
*1136 FILLER_56_177
*1137 FILLER_56_2
*1138 FILLER_56_209
*1139 FILLER_56_225
*1140 FILLER_56_34
*1141 FILLER_56_37
*1142 FILLER_57_136
*1143 FILLER_57_142
*1144 FILLER_57_2
*1145 FILLER_57_206
*1146 FILLER_57_212
*1147 FILLER_57_66
*1148 FILLER_57_72
*1149 FILLER_58_101
*1150 FILLER_58_107
*1151 FILLER_58_171
*1152 FILLER_58_177
*1153 FILLER_58_2
*1154 FILLER_58_209
*1155 FILLER_58_34
*1156 FILLER_58_37
*1157 FILLER_59_136
*1158 FILLER_59_142
*1159 FILLER_59_2
*1160 FILLER_59_206
*1161 FILLER_59_212
*1162 FILLER_59_66
*1163 FILLER_59_72
*1164 FILLER_5_136
*1165 FILLER_5_142
*1166 FILLER_5_2
*1167 FILLER_5_206
*1168 FILLER_5_212
*1169 FILLER_5_228
*1170 FILLER_5_236
*1171 FILLER_5_240
*1172 FILLER_5_66
*1173 FILLER_5_72
*1174 FILLER_60_101
*1175 FILLER_60_107
*1176 FILLER_60_171
*1177 FILLER_60_177
*1178 FILLER_60_2
*1179 FILLER_60_209
*1180 FILLER_60_34
*1181 FILLER_60_37
*1182 FILLER_61_136
*1183 FILLER_61_142
*1184 FILLER_61_2
*1185 FILLER_61_206
*1186 FILLER_61_212
*1187 FILLER_61_66
*1188 FILLER_61_72
*1189 FILLER_62_101
*1190 FILLER_62_107
*1191 FILLER_62_171
*1192 FILLER_62_177
*1193 FILLER_62_193
*1194 FILLER_62_2
*1195 FILLER_62_201
*1196 FILLER_62_34
*1197 FILLER_62_37
*1198 FILLER_63_136
*1199 FILLER_63_142
*1200 FILLER_63_174
*1201 FILLER_63_190
*1202 FILLER_63_198
*1203 FILLER_63_2
*1204 FILLER_63_212
*1205 FILLER_63_66
*1206 FILLER_63_72
*1207 FILLER_64_101
*1208 FILLER_64_107
*1209 FILLER_64_171
*1210 FILLER_64_177
*1211 FILLER_64_193
*1212 FILLER_64_195
*1213 FILLER_64_2
*1214 FILLER_64_204
*1215 FILLER_64_34
*1216 FILLER_64_37
*1217 FILLER_65_136
*1218 FILLER_65_142
*1219 FILLER_65_174
*1220 FILLER_65_182
*1221 FILLER_65_186
*1222 FILLER_65_2
*1223 FILLER_65_212
*1224 FILLER_65_66
*1225 FILLER_65_72
*1226 FILLER_66_101
*1227 FILLER_66_107
*1228 FILLER_66_171
*1229 FILLER_66_177
*1230 FILLER_66_181
*1231 FILLER_66_2
*1232 FILLER_66_34
*1233 FILLER_66_37
*1234 FILLER_67_136
*1235 FILLER_67_142
*1236 FILLER_67_158
*1237 FILLER_67_166
*1238 FILLER_67_170
*1239 FILLER_67_195
*1240 FILLER_67_2
*1241 FILLER_67_212
*1242 FILLER_67_66
*1243 FILLER_67_72
*1244 FILLER_68_101
*1245 FILLER_68_107
*1246 FILLER_68_139
*1247 FILLER_68_155
*1248 FILLER_68_159
*1249 FILLER_68_161
*1250 FILLER_68_170
*1251 FILLER_68_174
*1252 FILLER_68_2
*1253 FILLER_68_34
*1254 FILLER_68_37
*1255 FILLER_69_10
*1256 FILLER_69_111
*1257 FILLER_69_12
*1258 FILLER_69_127
*1259 FILLER_69_135
*1260 FILLER_69_139
*1261 FILLER_69_142
*1262 FILLER_69_144
*1263 FILLER_69_159
*1264 FILLER_69_169
*1265 FILLER_69_2
*1266 FILLER_69_207
*1267 FILLER_69_209
*1268 FILLER_69_212
*1269 FILLER_69_27
*1270 FILLER_69_43
*1271 FILLER_69_47
*1272 FILLER_69_63
*1273 FILLER_69_67
*1274 FILLER_69_69
*1275 FILLER_69_72
*1276 FILLER_69_88
*1277 FILLER_69_96
*1278 FILLER_6_101
*1279 FILLER_6_107
*1280 FILLER_6_16
*1281 FILLER_6_171
*1282 FILLER_6_177
*1283 FILLER_6_32
*1284 FILLER_6_34
*1285 FILLER_6_37
*1286 FILLER_70_101
*1287 FILLER_70_104
*1288 FILLER_70_106
*1289 FILLER_70_135
*1290 FILLER_70_152
*1291 FILLER_70_16
*1292 FILLER_70_200
*1293 FILLER_70_234
*1294 FILLER_70_240
*1295 FILLER_70_36
*1296 FILLER_70_51
*1297 FILLER_70_53
*1298 FILLER_70_70
*1299 FILLER_70_8
*1300 FILLER_70_99
*1301 FILLER_7_136
*1302 FILLER_7_142
*1303 FILLER_7_16
*1304 FILLER_7_206
*1305 FILLER_7_212
*1306 FILLER_7_228
*1307 FILLER_7_236
*1308 FILLER_7_240
*1309 FILLER_7_48
*1310 FILLER_7_64
*1311 FILLER_7_68
*1312 FILLER_7_72
*1313 FILLER_8_103
*1314 FILLER_8_107
*1315 FILLER_8_171
*1316 FILLER_8_177
*1317 FILLER_8_2
*1318 FILLER_8_34
*1319 FILLER_8_37
*1320 FILLER_8_69
*1321 FILLER_8_77
*1322 FILLER_8_81
*1323 FILLER_8_99
*1324 FILLER_9_130
*1325 FILLER_9_138
*1326 FILLER_9_142
*1327 FILLER_9_2
*1328 FILLER_9_206
*1329 FILLER_9_212
*1330 FILLER_9_228
*1331 FILLER_9_236
*1332 FILLER_9_240
*1333 FILLER_9_34
*1334 FILLER_9_50
*1335 FILLER_9_58
*1336 FILLER_9_72
*1337 FILLER_9_76
*1338 FILLER_9_98
*1339 PHY_EDGE_ROW_0_Left_71
*1340 PHY_EDGE_ROW_0_Right_0
*1341 PHY_EDGE_ROW_10_Left_81
*1342 PHY_EDGE_ROW_10_Right_10
*1343 PHY_EDGE_ROW_11_Left_82
*1344 PHY_EDGE_ROW_11_Right_11
*1345 PHY_EDGE_ROW_12_Left_83
*1346 PHY_EDGE_ROW_12_Right_12
*1347 PHY_EDGE_ROW_13_Left_84
*1348 PHY_EDGE_ROW_13_Right_13
*1349 PHY_EDGE_ROW_14_Left_85
*1350 PHY_EDGE_ROW_14_Right_14
*1351 PHY_EDGE_ROW_15_Left_86
*1352 PHY_EDGE_ROW_15_Right_15
*1353 PHY_EDGE_ROW_16_Left_87
*1354 PHY_EDGE_ROW_16_Right_16
*1355 PHY_EDGE_ROW_17_Left_88
*1356 PHY_EDGE_ROW_17_Right_17
*1357 PHY_EDGE_ROW_18_Left_89
*1358 PHY_EDGE_ROW_18_Right_18
*1359 PHY_EDGE_ROW_19_Left_90
*1360 PHY_EDGE_ROW_19_Right_19
*1361 PHY_EDGE_ROW_1_Left_72
*1362 PHY_EDGE_ROW_1_Right_1
*1363 PHY_EDGE_ROW_20_Left_91
*1364 PHY_EDGE_ROW_20_Right_20
*1365 PHY_EDGE_ROW_21_Left_92
*1366 PHY_EDGE_ROW_21_Right_21
*1367 PHY_EDGE_ROW_22_Left_93
*1368 PHY_EDGE_ROW_22_Right_22
*1369 PHY_EDGE_ROW_23_Left_94
*1370 PHY_EDGE_ROW_23_Right_23
*1371 PHY_EDGE_ROW_24_Left_95
*1372 PHY_EDGE_ROW_24_Right_24
*1373 PHY_EDGE_ROW_25_Left_96
*1374 PHY_EDGE_ROW_25_Right_25
*1375 PHY_EDGE_ROW_26_Left_97
*1376 PHY_EDGE_ROW_26_Right_26
*1377 PHY_EDGE_ROW_27_Left_98
*1378 PHY_EDGE_ROW_27_Right_27
*1379 PHY_EDGE_ROW_28_Left_99
*1380 PHY_EDGE_ROW_28_Right_28
*1381 PHY_EDGE_ROW_29_Left_100
*1382 PHY_EDGE_ROW_29_Right_29
*1383 PHY_EDGE_ROW_2_Left_73
*1384 PHY_EDGE_ROW_2_Right_2
*1385 PHY_EDGE_ROW_30_Left_101
*1386 PHY_EDGE_ROW_30_Right_30
*1387 PHY_EDGE_ROW_31_Left_102
*1388 PHY_EDGE_ROW_31_Right_31
*1389 PHY_EDGE_ROW_32_Left_103
*1390 PHY_EDGE_ROW_32_Right_32
*1391 PHY_EDGE_ROW_33_Left_104
*1392 PHY_EDGE_ROW_33_Right_33
*1393 PHY_EDGE_ROW_34_Left_105
*1394 PHY_EDGE_ROW_34_Right_34
*1395 PHY_EDGE_ROW_35_Left_106
*1396 PHY_EDGE_ROW_35_Right_35
*1397 PHY_EDGE_ROW_36_Left_107
*1398 PHY_EDGE_ROW_36_Right_36
*1399 PHY_EDGE_ROW_37_Left_108
*1400 PHY_EDGE_ROW_37_Right_37
*1401 PHY_EDGE_ROW_38_Left_109
*1402 PHY_EDGE_ROW_38_Right_38
*1403 PHY_EDGE_ROW_39_Left_110
*1404 PHY_EDGE_ROW_39_Right_39
*1405 PHY_EDGE_ROW_3_Left_74
*1406 PHY_EDGE_ROW_3_Right_3
*1407 PHY_EDGE_ROW_40_Left_111
*1408 PHY_EDGE_ROW_40_Right_40
*1409 PHY_EDGE_ROW_41_Left_112
*1410 PHY_EDGE_ROW_41_Right_41