*SPEF "ieee 1481-1999"
*DESIGN "S_term_DSP"
*DATE "11:04:21 Friday November 28, 2025"
*VENDOR "The OpenROAD Project"
*PROGRAM "OpenROAD"
*VERSION "341650e72dad0dc8571822ff8c5d9c5e365327f7"
*DESIGN_FLOW "NAME_SCOPE LOCAL" "PIN_CAP NONE"
*DIVIDER /
*DELIMITER :
*BUS_DELIMITER []
*T_UNIT 1 NS
*C_UNIT 1 PF
*R_UNIT 1 OHM
*L_UNIT 1 HENRY

*NAME_MAP
*1 FrameData[0]
*2 FrameData[10]
*3 FrameData[11]
*4 FrameData[12]
*5 FrameData[13]
*6 FrameData[14]
*7 FrameData[15]
*8 FrameData[16]
*9 FrameData[17]
*10 FrameData[18]
*11 FrameData[19]
*12 FrameData[1]
*13 FrameData[20]
*14 FrameData[21]
*15 FrameData[22]
*16 FrameData[23]
*17 FrameData[24]
*18 FrameData[25]
*19 FrameData[26]
*20 FrameData[27]
*21 FrameData[28]
*22 FrameData[29]
*23 FrameData[2]
*24 FrameData[30]
*25 FrameData[31]
*26 FrameData[3]
*27 FrameData[4]
*28 FrameData[5]
*29 FrameData[6]
*30 FrameData[7]
*31 FrameData[8]
*32 FrameData[9]
*33 FrameData_O[0]
*34 FrameData_O[10]
*35 FrameData_O[11]
*36 FrameData_O[12]
*37 FrameData_O[13]
*38 FrameData_O[14]
*39 FrameData_O[15]
*40 FrameData_O[16]
*41 FrameData_O[17]
*42 FrameData_O[18]
*43 FrameData_O[19]
*44 FrameData_O[1]
*45 FrameData_O[20]
*46 FrameData_O[21]
*47 FrameData_O[22]
*48 FrameData_O[23]
*49 FrameData_O[24]
*50 FrameData_O[25]
*51 FrameData_O[26]
*52 FrameData_O[27]
*53 FrameData_O[28]
*54 FrameData_O[29]
*55 FrameData_O[2]
*56 FrameData_O[30]
*57 FrameData_O[31]
*58 FrameData_O[3]
*59 FrameData_O[4]
*60 FrameData_O[5]
*61 FrameData_O[6]
*62 FrameData_O[7]
*63 FrameData_O[8]
*64 FrameData_O[9]
*65 FrameStrobe[0]
*66 FrameStrobe[10]
*67 FrameStrobe[11]
*68 FrameStrobe[12]
*69 FrameStrobe[13]
*70 FrameStrobe[14]
*71 FrameStrobe[15]
*72 FrameStrobe[16]
*73 FrameStrobe[17]
*74 FrameStrobe[18]
*75 FrameStrobe[19]
*76 FrameStrobe[1]
*77 FrameStrobe[2]
*78 FrameStrobe[3]
*79 FrameStrobe[4]
*80 FrameStrobe[5]
*81 FrameStrobe[6]
*82 FrameStrobe[7]
*83 FrameStrobe[8]
*84 FrameStrobe[9]
*85 FrameStrobe_O[0]
*86 FrameStrobe_O[10]
*87 FrameStrobe_O[11]
*88 FrameStrobe_O[12]
*89 FrameStrobe_O[13]
*90 FrameStrobe_O[14]
*91 FrameStrobe_O[15]
*92 FrameStrobe_O[16]
*93 FrameStrobe_O[17]
*94 FrameStrobe_O[18]
*95 FrameStrobe_O[19]
*96 FrameStrobe_O[1]
*97 FrameStrobe_O[2]
*98 FrameStrobe_O[3]
*99 FrameStrobe_O[4]
*100 FrameStrobe_O[5]
*101 FrameStrobe_O[6]
*102 FrameStrobe_O[7]
*103 FrameStrobe_O[8]
*104 FrameStrobe_O[9]
*105 N1BEG[0]
*106 N1BEG[1]
*107 N1BEG[2]
*108 N1BEG[3]
*109 N2BEG[0]
*110 N2BEG[1]
*111 N2BEG[2]
*112 N2BEG[3]
*113 N2BEG[4]
*114 N2BEG[5]
*115 N2BEG[6]
*116 N2BEG[7]
*117 N2BEGb[0]
*118 N2BEGb[1]
*119 N2BEGb[2]
*120 N2BEGb[3]
*121 N2BEGb[4]
*122 N2BEGb[5]
*123 N2BEGb[6]
*124 N2BEGb[7]
*125 N4BEG[0]
*126 N4BEG[10]
*127 N4BEG[11]
*128 N4BEG[12]
*129 N4BEG[13]
*130 N4BEG[14]
*131 N4BEG[15]
*132 N4BEG[1]
*133 N4BEG[2]
*134 N4BEG[3]
*135 N4BEG[4]
*136 N4BEG[5]
*137 N4BEG[6]
*138 N4BEG[7]
*139 N4BEG[8]
*140 N4BEG[9]
*141 NN4BEG[0]
*142 NN4BEG[10]
*143 NN4BEG[11]
*144 NN4BEG[12]
*145 NN4BEG[13]
*146 NN4BEG[14]
*147 NN4BEG[15]
*148 NN4BEG[1]
*149 NN4BEG[2]
*150 NN4BEG[3]
*151 NN4BEG[4]
*152 NN4BEG[5]
*153 NN4BEG[6]
*154 NN4BEG[7]
*155 NN4BEG[8]
*156 NN4BEG[9]
*157 S1END[0]
*158 S1END[1]
*159 S1END[2]
*160 S1END[3]
*161 S2END[0]
*162 S2END[1]
*163 S2END[2]
*164 S2END[3]
*165 S2END[4]
*166 S2END[5]
*167 S2END[6]
*168 S2END[7]
*169 S2MID[0]
*170 S2MID[1]
*171 S2MID[2]
*172 S2MID[3]
*173 S2MID[4]
*174 S2MID[5]
*175 S2MID[6]
*176 S2MID[7]
*177 S4END[0]
*178 S4END[10]
*179 S4END[11]
*180 S4END[12]
*181 S4END[13]
*182 S4END[14]
*183 S4END[15]
*184 S4END[1]
*185 S4END[2]
*186 S4END[3]
*187 S4END[4]
*188 S4END[5]
*189 S4END[6]
*190 S4END[7]
*191 S4END[8]
*192 S4END[9]
*193 SS4END[0]
*194 SS4END[10]
*195 SS4END[11]
*196 SS4END[12]
*197 SS4END[13]
*198 SS4END[14]
*199 SS4END[15]
*200 SS4END[1]
*201 SS4END[2]
*202 SS4END[3]
*203 SS4END[4]
*204 SS4END[5]
*205 SS4END[6]
*206 SS4END[7]
*207 SS4END[8]
*208 SS4END[9]
*209 UserCLK
*210 UserCLKo
*213 net1
*214 net10
*215 net100
*216 net101
*217 net102
*218 net103
*219 net104
*220 net105
*221 net11
*222 net12
*223 net13
*224 net14
*225 net15
*226 net16
*227 net17
*228 net18
*229 net19
*230 net2
*231 net20
*232 net21
*233 net22
*234 net23
*235 net24
*236 net25
*237 net26
*238 net27
*239 net28
*240 net29
*241 net3
*242 net30
*243 net31
*244 net32
*245 net33
*246 net34
*247 net35
*248 net36
*249 net37
*250 net38
*251 net39
*252 net4
*253 net40
*254 net41
*255 net42
*256 net43
*257 net44
*258 net45
*259 net46
*260 net47
*261 net48
*262 net49
*263 net5
*264 net50
*265 net51
*266 net52
*267 net53
*268 net54
*269 net55
*270 net56
*271 net57
*272 net58
*273 net59
*274 net6
*275 net60
*276 net61
*277 net62
*278 net63
*279 net64
*280 net65
*281 net66
*282 net67
*283 net68
*284 net69
*285 net7
*286 net70
*287 net71
*288 net72
*289 net73
*290 net74
*291 net75
*292 net76
*293 net77
*294 net78
*295 net79
*296 net8
*297 net80
*298 net81
*299 net82
*300 net83
*301 net84
*302 net85
*303 net86
*304 net87
*305 net88
*306 net89
*307 net9
*308 net90
*309 net91
*310 net92
*311 net93
*312 net94
*313 net95
*314 net96
*315 net97
*316 net98
*317 net99
*318 FILLER_0_104
*319 FILLER_0_138
*320 FILLER_0_172
*321 FILLER_0_182
*322 FILLER_0_198
*323 FILLER_0_2
*324 FILLER_0_202
*325 FILLER_0_206
*326 FILLER_0_240
*327 FILLER_0_274
*328 FILLER_0_308
*329 FILLER_0_342
*330 FILLER_0_36
*331 FILLER_0_376
*332 FILLER_0_410
*333 FILLER_0_444
*334 FILLER_0_454
*335 FILLER_0_456
*336 FILLER_0_70
*337 FILLER_10_107
*338 FILLER_10_199
*339 FILLER_10_2
*340 FILLER_10_207
*341 FILLER_10_209
*342 FILLER_10_226
*343 FILLER_10_242
*344 FILLER_10_244
*345 FILLER_10_247
*346 FILLER_10_311
*347 FILLER_10_317
*348 FILLER_10_333
*349 FILLER_10_34
*350 FILLER_10_345
*351 FILLER_10_363
*352 FILLER_10_37
*353 FILLER_10_379
*354 FILLER_10_383
*355 FILLER_10_387
*356 FILLER_10_53
*357 FILLER_10_61
*358 FILLER_10_65
*359 FILLER_10_67
*360 FILLER_10_76
*361 FILLER_10_84
*362 FILLER_10_88
*363 FILLER_10_90
*364 FILLER_11_142
*365 FILLER_11_144
*366 FILLER_11_2
*367 FILLER_11_201
*368 FILLER_11_209
*369 FILLER_11_220
*370 FILLER_11_224
*371 FILLER_11_226
*372 FILLER_11_235
*373 FILLER_11_243
*374 FILLER_11_275
*375 FILLER_11_279
*376 FILLER_11_282
*377 FILLER_11_298
*378 FILLER_11_300
*379 FILLER_11_309
*380 FILLER_11_313
*381 FILLER_11_315
*382 FILLER_11_324
*383 FILLER_11_332
*384 FILLER_11_334
*385 FILLER_11_349
*386 FILLER_11_374
*387 FILLER_11_382
*388 FILLER_11_384
*389 FILLER_11_401
*390 FILLER_11_417
*391 FILLER_11_419
*392 FILLER_11_422
*393 FILLER_11_426
*394 FILLER_11_428
*395 FILLER_11_66
*396 FILLER_11_80
*397 FILLER_11_96
*398 FILLER_12_107
*399 FILLER_12_115
*400 FILLER_12_15
*401 FILLER_12_177
*402 FILLER_12_181
*403 FILLER_12_2
*404 FILLER_12_211
*405 FILLER_12_227
*406 FILLER_12_244
*407 FILLER_12_247
*408 FILLER_12_31
*409 FILLER_12_311
*410 FILLER_12_317
*411 FILLER_12_37
*412 FILLER_12_381
*413 FILLER_12_387
*414 FILLER_12_6
*415 FILLER_12_69
*416 FILLER_13_142
*417 FILLER_13_2
*418 FILLER_13_220
*419 FILLER_13_236
*420 FILLER_13_240
*421 FILLER_13_250
*422 FILLER_13_266
*423 FILLER_13_274
*424 FILLER_13_278
*425 FILLER_13_282
*426 FILLER_13_314
*427 FILLER_13_318
*428 FILLER_13_34
*429 FILLER_13_347
*430 FILLER_13_349
*431 FILLER_13_38
*432 FILLER_13_380
*433 FILLER_13_412
*434 FILLER_13_422
*435 FILLER_13_426
*436 FILLER_13_428
*437 FILLER_13_56
*438 FILLER_13_64
*439 FILLER_13_68
*440 FILLER_13_72
*441 FILLER_13_80
*442 FILLER_14_10
*443 FILLER_14_115
*444 FILLER_14_14
*445 FILLER_14_2
*446 FILLER_14_219
*447 FILLER_14_227
*448 FILLER_14_239
*449 FILLER_14_24
*450 FILLER_14_243
*451 FILLER_14_263
*452 FILLER_14_265
*453 FILLER_14_274
*454 FILLER_14_306
*455 FILLER_14_314
*456 FILLER_14_32
*457 FILLER_14_34
*458 FILLER_14_37
*459 FILLER_14_381
*460 FILLER_14_387
*461 FILLER_14_403
*462 FILLER_14_41
*463 FILLER_14_411
*464 FILLER_14_43
*465 FILLER_14_52
*466 FILLER_14_69
*467 FILLER_15_104
*468 FILLER_15_138
*469 FILLER_15_172
*470 FILLER_15_2
*471 FILLER_15_206
*472 FILLER_15_221
*473 FILLER_15_237
*474 FILLER_15_240
*475 FILLER_15_274
*476 FILLER_15_308
*477 FILLER_15_329
*478 FILLER_15_331
*479 FILLER_15_36
*480 FILLER_15_370
*481 FILLER_15_404
*482 FILLER_15_410
*483 FILLER_15_444
*484 FILLER_15_454
*485 FILLER_15_456
*486 FILLER_15_70
*487 FILLER_1_104
*488 FILLER_1_112
*489 FILLER_1_116
*490 FILLER_1_125
*491 FILLER_1_133
*492 FILLER_1_137
*493 FILLER_1_139
*494 FILLER_1_142
*495 FILLER_1_158
*496 FILLER_1_170
*497 FILLER_1_172
*498 FILLER_1_181
*499 FILLER_1_197
*500 FILLER_1_2
*501 FILLER_1_205
*502 FILLER_1_209
*503 FILLER_1_212
*504 FILLER_1_276
*505 FILLER_1_282
*506 FILLER_1_294
*507 FILLER_1_326
*508 FILLER_1_352
*509 FILLER_1_392
*510 FILLER_1_408
*511 FILLER_1_422
*512 FILLER_1_426
*513 FILLER_1_428
*514 FILLER_1_66
*515 FILLER_1_72
*516 FILLER_2_107
*517 FILLER_2_139
*518 FILLER_2_15
*519 FILLER_2_151
*520 FILLER_2_167
*521 FILLER_2_177
*522 FILLER_2_2
*523 FILLER_2_23
*524 FILLER_2_241
*525 FILLER_2_247
*526 FILLER_2_311
*527 FILLER_2_317
*528 FILLER_2_321
*529 FILLER_2_323
*530 FILLER_2_332
*531 FILLER_2_348
*532 FILLER_2_37
*533 FILLER_2_380
*534 FILLER_2_384
*535 FILLER_2_387
*536 FILLER_2_395
*537 FILLER_2_397
*538 FILLER_2_406
*539 FILLER_2_410
*540 FILLER_2_412
*541 FILLER_2_6
*542 FILLER_2_69
*543 FILLER_2_85
*544 FILLER_3_136
*545 FILLER_3_142
*546 FILLER_3_158
*547 FILLER_3_166
*548 FILLER_3_168
*549 FILLER_3_17
*550 FILLER_3_177
*551 FILLER_3_2
*552 FILLER_3_209
*553 FILLER_3_220
*554 FILLER_3_244
*555 FILLER_3_252
*556 FILLER_3_262
*557 FILLER_3_278
*558 FILLER_3_282
*559 FILLER_3_286
*560 FILLER_3_295
*561 FILLER_3_327
*562 FILLER_3_343
*563 FILLER_3_347
*564 FILLER_3_349
*565 FILLER_3_352
*566 FILLER_3_384
*567 FILLER_3_400
*568 FILLER_3_418
*569 FILLER_3_422
*570 FILLER_3_426
*571 FILLER_3_428
*572 FILLER_3_49
*573 FILLER_3_6
*574 FILLER_3_65
*575 FILLER_3_69
*576 FILLER_3_72
*577 FILLER_3_8
*578 FILLER_4_103
*579 FILLER_4_107
*580 FILLER_4_123
*581 FILLER_4_133
*582 FILLER_4_165
*583 FILLER_4_173
*584 FILLER_4_177
*585 FILLER_4_2
*586 FILLER_4_209
*587 FILLER_4_225
*588 FILLER_4_237
*589 FILLER_4_247
*590 FILLER_4_279
*591 FILLER_4_283
*592 FILLER_4_292
*593 FILLER_4_308
*594 FILLER_4_312
*595 FILLER_4_314
*596 FILLER_4_317
*597 FILLER_4_34
*598 FILLER_4_349
*599 FILLER_4_365
*600 FILLER_4_369
*601 FILLER_4_37
*602 FILLER_4_378
*603 FILLER_4_382
*604 FILLER_4_384
*605 FILLER_4_395
*606 FILLER_4_403
*607 FILLER_4_415
*608 FILLER_4_69
*609 FILLER_4_77
*610 FILLER_4_81
*611 FILLER_4_91
*612 FILLER_4_99
*613 FILLER_5_104
*614 FILLER_5_128
*615 FILLER_5_136
*616 FILLER_5_142
*617 FILLER_5_144
*618 FILLER_5_153
*619 FILLER_5_185
*620 FILLER_5_193
*621 FILLER_5_2
*622 FILLER_5_202
*623 FILLER_5_212
*624 FILLER_5_214
*625 FILLER_5_223
*626 FILLER_5_255
*627 FILLER_5_271
*628 FILLER_5_279
*629 FILLER_5_282
*630 FILLER_5_314
*631 FILLER_5_330
*632 FILLER_5_338
*633 FILLER_5_34
*634 FILLER_5_348
*635 FILLER_5_352
*636 FILLER_5_416
*637 FILLER_5_42
*638 FILLER_5_422
*639 FILLER_5_426
*640 FILLER_5_428
*641 FILLER_5_54
*642 FILLER_5_72
*643 FILLER_6_102
*644 FILLER_6_104
*645 FILLER_6_107
*646 FILLER_6_171
*647 FILLER_6_177
*648 FILLER_6_193
*649 FILLER_6_2
*650 FILLER_6_201
*651 FILLER_6_213
*652 FILLER_6_247
*653 FILLER_6_311
*654 FILLER_6_317
*655 FILLER_6_325
*656 FILLER_6_329
*657 FILLER_6_34
*658 FILLER_6_346
*659 FILLER_6_378
*660 FILLER_6_382
*661 FILLER_6_384
*662 FILLER_6_387
*663 FILLER_6_419
*664 FILLER_6_421
*665 FILLER_6_430
*666 FILLER_6_432
*667 FILLER_6_53
*668 FILLER_6_69
*669 FILLER_6_77
*670 FILLER_6_94
*671 FILLER_7_113
*672 FILLER_7_129
*673 FILLER_7_137
*674 FILLER_7_139
*675 FILLER_7_142
*676 FILLER_7_158
*677 FILLER_7_168
*678 FILLER_7_184
*679 FILLER_7_192
*680 FILLER_7_2
*681 FILLER_7_204
*682 FILLER_7_208
*683 FILLER_7_212
*684 FILLER_7_244
*685 FILLER_7_252
*686 FILLER_7_254
*687 FILLER_7_263
*688 FILLER_7_279
*689 FILLER_7_282
*690 FILLER_7_34
*691 FILLER_7_346
*692 FILLER_7_352
*693 FILLER_7_384
*694 FILLER_7_388
*695 FILLER_7_390
*696 FILLER_7_399
*697 FILLER_7_415
*698 FILLER_7_419
*699 FILLER_7_42
*700 FILLER_7_422
*701 FILLER_7_426
*702 FILLER_7_428
*703 FILLER_7_44
*704 FILLER_7_53
*705 FILLER_7_69
*706 FILLER_7_72
*707 FILLER_7_81
*708 FILLER_8_101
*709 FILLER_8_135
*710 FILLER_8_151
*711 FILLER_8_155
*712 FILLER_8_165
*713 FILLER_8_173
*714 FILLER_8_177
*715 FILLER_8_193
*716 FILLER_8_2
*717 FILLER_8_209
*718 FILLER_8_241
*719 FILLER_8_247
*720 FILLER_8_263
*721 FILLER_8_295
*722 FILLER_8_311
*723 FILLER_8_317
*724 FILLER_8_34
*725 FILLER_8_37
*726 FILLER_8_381
*727 FILLER_8_387
*728 FILLER_8_419
*729 FILLER_9_100
*730 FILLER_9_142
*731 FILLER_9_150
*732 FILLER_9_154
*733 FILLER_9_169
*734 FILLER_9_177
*735 FILLER_9_179
*736 FILLER_9_196
*737 FILLER_9_2
*738 FILLER_9_204
*739 FILLER_9_208
*740 FILLER_9_212
*741 FILLER_9_214
*742 FILLER_9_223
*743 FILLER_9_263
*744 FILLER_9_279
*745 FILLER_9_290
*746 FILLER_9_322
*747 FILLER_9_338
*748 FILLER_9_346
*749 FILLER_9_352
*750 FILLER_9_416
*751 FILLER_9_422
*752 FILLER_9_426
*753 FILLER_9_66
*754 FILLER_9_72
*755 FILLER_9_84
*756 PHY_EDGE_ROW_0_Left_16
*757 PHY_EDGE_ROW_0_Right_0
*758 PHY_EDGE_ROW_10_Left_26
*759 PHY_EDGE_ROW_10_Right_10
*760 PHY_EDGE_ROW_11_Left_27
*761 PHY_EDGE_ROW_11_Right_11
*762 PHY_EDGE_ROW_12_Left_28
*763 PHY_EDGE_ROW_12_Right_12
*764 PHY_EDGE_ROW_13_Left_29
*765 PHY_EDGE_ROW_13_Right_13
*766 PHY_EDGE_ROW_14_Left_30
*767 PHY_EDGE_ROW_14_Right_14
*768 PHY_EDGE_ROW_15_Left_31
*769 PHY_EDGE_ROW_15_Right_15
*770 PHY_EDGE_ROW_1_Left_17
*771 PHY_EDGE_ROW_1_Right_1
*772 PHY_EDGE_ROW_2_Left_18
*773 PHY_EDGE_ROW_2_Right_2
*774 PHY_EDGE_ROW_3_Left_19
*775 PHY_EDGE_ROW_3_Right_3
*776 PHY_EDGE_ROW_4_Left_20
*777 PHY_EDGE_ROW_4_Right_4
*778 PHY_EDGE_ROW_5_Left_21
*779 PHY_EDGE_ROW_5_Right_5
*780 PHY_EDGE_ROW_6_Left_22
*781 PHY_EDGE_ROW_6_Right_6
*782 PHY_EDGE_ROW_7_Left_23
*783 PHY_EDGE_ROW_7_Right_7
*784 PHY_EDGE_ROW_8_Left_24
*785 PHY_EDGE_ROW_8_Right_8
*786 PHY_EDGE_ROW_9_Left_25
*787 PHY_EDGE_ROW_9_Right_9
*788 TAP_TAPCELL_ROW_0_32
*789 TAP_TAPCELL_ROW_0_33
*790 TAP_TAPCELL_ROW_0_34
*791 TAP_TAPCELL_ROW_0_35
*792 TAP_TAPCELL_ROW_0_36
*793 TAP_TAPCELL_ROW_0_37
*794 TAP_TAPCELL_ROW_0_38
*795 TAP_TAPCELL_ROW_0_39
*796 TAP_TAPCELL_ROW_0_40
*797 TAP_TAPCELL_ROW_0_41
*798 TAP_TAPCELL_ROW_0_42
*799 TAP_TAPCELL_ROW_0_43
*800 TAP_TAPCELL_ROW_0_44
*801 TAP_TAPCELL_ROW_10_103
*802 TAP_TAPCELL_ROW_10_104
*803 TAP_TAPCELL_ROW_10_105
*804 TAP_TAPCELL_ROW_10_106
*805 TAP_TAPCELL_ROW_10_107
*806 TAP_TAPCELL_ROW_10_108
*807 TAP_TAPCELL_ROW_10_109
*808 TAP_TAPCELL_ROW_11_110
*809 TAP_TAPCELL_ROW_11_111
*810 TAP_TAPCELL_ROW_11_112
*811 TAP_TAPCELL_ROW_11_113
*812 TAP_TAPCELL_ROW_11_114
*813 TAP_TAPCELL_ROW_11_115
*814 TAP_TAPCELL_ROW_12_116
*815 TAP_TAPCELL_ROW_12_117
*816 TAP_TAPCELL_ROW_12_118
*817 TAP_TAPCELL_ROW_12_119
*818 TAP_TAPCELL_ROW_12_120
*819 TAP_TAPCELL_ROW_12_121
*820 TAP_TAPCELL_ROW_12_122
*821 TAP_TAPCELL_ROW_13_123
*822 TAP_TAPCELL_ROW_13_124
*823 TAP_TAPCELL_ROW_13_125
*824 TAP_TAPCELL_ROW_13_126
*825 TAP_TAPCELL_ROW_13_127
*826 TAP_TAPCELL_ROW_13_128
*827 TAP_TAPCELL_ROW_14_129
*828 TAP_TAPCELL_ROW_14_130
*829 TAP_TAPCELL_ROW_14_131
*830 TAP_TAPCELL_ROW_14_132
*831 TAP_TAPCELL_ROW_14_133
*832 TAP_TAPCELL_ROW_14_134
*833 TAP_TAPCELL_ROW_14_135
*834 TAP_TAPCELL_ROW_15_136
*835 TAP_TAPCELL_ROW_15_137
*836 TAP_TAPCELL_ROW_15_138
*837 TAP_TAPCELL_ROW_15_139
*838 TAP_TAPCELL_ROW_15_140
*839 TAP_TAPCELL_ROW_15_141
*840 TAP_TAPCELL_ROW_15_142
*841 TAP_TAPCELL_ROW_15_143
*842 TAP_TAPCELL_ROW_15_144
*843 TAP_TAPCELL_ROW_15_145
*844 TAP_TAPCELL_ROW_15_146
*845 TAP_TAPCELL_ROW_15_147
*846 TAP_TAPCELL_ROW_15_148
*847 TAP_TAPCELL_ROW_1_45
*848 TAP_TAPCELL_ROW_1_46
*849 TAP_TAPCELL_ROW_1_47
*850 TAP_TAPCELL_ROW_1_48
*851 TAP_TAPCELL_ROW_1_49
*852 TAP_TAPCELL_ROW_1_50
*853 TAP_TAPCELL_ROW_2_51
*854 TAP_TAPCELL_ROW_2_52
*855 TAP_TAPCELL_ROW_2_53
*856 TAP_TAPCELL_ROW_2_54
*857 TAP_TAPCELL_ROW_2_55
*858 TAP_TAPCELL_ROW_2_56
*859 TAP_TAPCELL_ROW_2_57
*860 TAP_TAPCELL_ROW_3_58
*861 TAP_TAPCELL_ROW_3_59
*862 TAP_TAPCELL_ROW_3_60
*863 TAP_TAPCELL_ROW_3_61
*864 TAP_TAPCELL_ROW_3_62
*865 TAP_TAPCELL_ROW_3_63
*866 TAP_TAPCELL_ROW_4_64
*867 TAP_TAPCELL_ROW_4_65
*868 TAP_TAPCELL_ROW_4_66
*869 TAP_TAPCELL_ROW_4_67
*870 TAP_TAPCELL_ROW_4_68
*871 TAP_TAPCELL_ROW_4_69
*872 TAP_TAPCELL_ROW_4_70
*873 TAP_TAPCELL_ROW_5_71
*874 TAP_TAPCELL_ROW_5_72
*875 TAP_TAPCELL_ROW_5_73
*876 TAP_TAPCELL_ROW_5_74
*877 TAP_TAPCELL_ROW_5_75
*878 TAP_TAPCELL_ROW_5_76
*879 TAP_TAPCELL_ROW_6_77
*880 TAP_TAPCELL_ROW_6_78
*881 TAP_TAPCELL_ROW_6_79
*882 TAP_TAPCELL_ROW_6_80
*883 TAP_TAPCELL_ROW_6_81
*884 TAP_TAPCELL_ROW_6_82
*885 TAP_TAPCELL_ROW_6_83
*886 TAP_TAPCELL_ROW_7_84
*887 TAP_TAPCELL_ROW_7_85
*888 TAP_TAPCELL_ROW_7_86
*889 TAP_TAPCELL_ROW_7_87
*890 TAP_TAPCELL_ROW_7_88
*891 TAP_TAPCELL_ROW_7_89
*892 TAP_TAPCELL_ROW_8_90
*893 TAP_TAPCELL_ROW_8_91
*894 TAP_TAPCELL_ROW_8_92
*895 TAP_TAPCELL_ROW_8_93
*896 TAP_TAPCELL_ROW_8_94
*897 TAP_TAPCELL_ROW_8_95
*898 TAP_TAPCELL_ROW_8_96
*899 TAP_TAPCELL_ROW_9_100
*900 TAP_TAPCELL_ROW_9_101
*901 TAP_TAPCELL_ROW_9_102
*902 TAP_TAPCELL_ROW_9_97
*903 TAP_TAPCELL_ROW_9_98
*904 TAP_TAPCELL_ROW_9_99
*905 _000_
*906 _001_
*907 _002_
*908 _003_
*909 _004_
*910 _005_
*911 _006_
*912 _007_
*913 _008_
*914 _009_
*915 _010_
*916 _011_
*917 _012_
*918 _013_
*919 _014_
*920 _015_
*921 _016_
*922 _017_
*923 _018_
*924 _019_
*925 _020_
*926 _021_
*927 _022_
*928 _023_
*929 _024_
*930 _025_
*931 _026_
*932 _027_
*933 _028_
*934 _029_
*935 _030_
*936 _031_
*937 _032_
*938 _033_
*939 _034_
*940 _035_
*941 _036_
*942 _037_
*943 _038_
*944 _039_
*945 _040_
*946 _041_
*947 _042_
*948 _043_
*949 _044_
*950 _045_
*951 _046_
*952 _047_
*953 _048_
*954 _049_
*955 _050_
*956 _051_
*957 _052_
*958 _053_
*959 _054_
*960 _055_
*961 _056_
*962 _057_
*963 _058_
*964 _059_
*965 _060_
*966 _061_
*967 _062_
*968 _063_
*969 _064_
*970 _065_
*971 _066_
*972 _067_
*973 _068_
*974 _069_
*975 _070_
*976 _071_
*977 _072_
*978 _073_
*979 _074_
*980 _075_
*981 _076_
*982 _077_
*983 _078_
*984 _079_
*985 _080_
*986 _081_
*987 _082_
*988 _083_
*989 _084_
*990 _085_
*991 _086_
*992 _087_
*993 _088_
*994 _089_
*995 _090_
*996 _091_
*997 _092_
*998 _093_
*999 _094_
*1000 _095_
*1001 _096_
*1002 _097_
*1003 _098_
*1004 _099_
*1005 _100_
*1006 _101_
*1007 _102_
*1008 _103_
*1009 _104_
*1010 output1
*1011 output10
*1012 output100
*1013 output101
*1014 output102
*1015 output103
*1016 output104
*1017 output105
*1018 output11
*1019 output12
*1020 output13
*1021 output14
*1022 output15
*1023 output16
*1024 output17
*1025 output18
*1026 output19
*1027 output2
*1028 output20
*1029 output21
*1030 output22
*1031 output23
*1032 output24
*1033 output25
*1034 output26
*1035 output27
*1036 output28
*1037 output29
*1038 output3
*1039 output30
*1040 output31
*1041 output32
*1042 output33
*1043 output34
*1044 output35
*1045 output36
*1046 output37
*1047 output38
*1048 output39
*1049 output4
*1050 output40
*1051 output41
*1052 output42
*1053 output43
*1054 output44
*1055 output45
*1056 output46
*1057 output47
*1058 output48
*1059 output49
*1060 output5
*1061 output50
*1062 output51
*1063 output52
*1064 output53
*1065 output54
*1066 output55
*1067 output56
*1068 output57
*1069 output58
*1070 output59
*1071 output6
*1072 output60
*1073 output61
*1074 output62
*1075 output63
*1076 output64
*1077 output65
*1078 output66
*1079 output67
*1080 output68
*1081 output69
*1082 output7
*1083 output70
*1084 output71
*1085 output72
*1086 output73
*1087 output74
*1088 output75
*1089 output76
*1090 output77
*1091 output78
*1092 output79
*1093 output8
*1094 output80
*1095 output81
*1096 output82
*1097 output83
*1098 output84
*1099 output85
*1100 output86
*1101 output87
*1102 output88
*1103 output89
*1104 output9
*1105 output90
*1106 output91
*1107 output92
*1108 output93
*1109 output94
*1110 output95
*1111 output96
*1112 output97
*1113 output98
*1114 output99

*PORTS
FrameData[0] I
FrameData[10] I
FrameData[11] I
FrameData[12] I
FrameData[13] I
FrameData[14] I
FrameData[15] I
FrameData[16] I
FrameData[17] I
FrameData[18] I
FrameData[19] I
FrameData[1] I
FrameData[20] I
FrameData[21] I
FrameData[22] I
FrameData[23] I
FrameData[24] I
FrameData[25] I
FrameData[26] I
FrameData[27] I
FrameData[28] I
FrameData[29] I
FrameData[2] I
FrameData[30] I
FrameData[31] I
FrameData[3] I
FrameData[4] I
FrameData[5] I
FrameData[6] I
FrameData[7] I
FrameData[8] I
FrameData[9] I
FrameData_O[0] O
FrameData_O[10] O
FrameData_O[11] O
FrameData_O[12] O
FrameData_O[13] O
FrameData_O[14] O
FrameData_O[15] O
FrameData_O[16] O
FrameData_O[17] O
FrameData_O[18] O
FrameData_O[19] O
FrameData_O[1] O
FrameData_O[20] O
FrameData_O[21] O
FrameData_O[22] O
FrameData_O[23] O
FrameData_O[24] O
FrameData_O[25] O
FrameData_O[26] O
FrameData_O[27] O
FrameData_O[28] O
FrameData_O[29] O
FrameData_O[2] O
FrameData_O[30] O
FrameData_O[31] O
FrameData_O[3] O
FrameData_O[4] O
FrameData_O[5] O
FrameData_O[6] O
FrameData_O[7] O
FrameData_O[8] O
FrameData_O[9] O
FrameStrobe[0] I
FrameStrobe[10] I
FrameStrobe[11] I
FrameStrobe[12] I
FrameStrobe[13] I
FrameStrobe[14] I
FrameStrobe[15] I
FrameStrobe[16] I
FrameStrobe[17] I
FrameStrobe[18] I
FrameStrobe[19] I
FrameStrobe[1] I
FrameStrobe[2] I
FrameStrobe[3] I
FrameStrobe[4] I
FrameStrobe[5] I
FrameStrobe[6] I
FrameStrobe[7] I
FrameStrobe[8] I
FrameStrobe[9] I
FrameStrobe_O[0] O
FrameStrobe_O[10] O
FrameStrobe_O[11] O
FrameStrobe_O[12] O
FrameStrobe_O[13] O
FrameStrobe_O[14] O
FrameStrobe_O[15] O
FrameStrobe_O[16] O
FrameStrobe_O[17] O
FrameStrobe_O[18] O
FrameStrobe_O[19] O
FrameStrobe_O[1] O
FrameStrobe_O[2] O
FrameStrobe_O[3] O
FrameStrobe_O[4] O
FrameStrobe_O[5] O
FrameStrobe_O[6] O
FrameStrobe_O[7] O
FrameStrobe_O[8] O
FrameStrobe_O[9] O
N1BEG[0] O
N1BEG[1] O
N1BEG[2] O
N1BEG[3] O
N2BEG[0] O
N2BEG[1] O
N2BEG[2] O
N2BEG[3] O
N2BEG[4] O
N2BEG[5] O
N2BEG[6] O
N2BEG[7] O
N2BEGb[0] O
N2BEGb[1] O
N2BEGb[2] O
N2BEGb[3] O
N2BEGb[4] O
N2BEGb[5] O
N2BEGb[6] O
N2BEGb[7] O
N4BEG[0] O
N4BEG[10] O
N4BEG[11] O
N4BEG[12] O
N4BEG[13] O
N4BEG[14] O
N4BEG[15] O
N4BEG[1] O
N4BEG[2] O
N4BEG[3] O
N4BEG[4] O
N4BEG[5] O
N4BEG[6] O
N4BEG[7] O
N4BEG[8] O
N4BEG[9] O
NN4BEG[0] O
NN4BEG[10] O
NN4BEG[11] O
NN4BEG[12] O
NN4BEG[13] O
NN4BEG[14] O
NN4BEG[15] O
NN4BEG[1] O
NN4BEG[2] O
NN4BEG[3] O
NN4BEG[4] O
NN4BEG[5] O
NN4BEG[6] O
NN4BEG[7] O
NN4BEG[8] O
NN4BEG[9] O
S1END[0] I
S1END[1] I
S1END[2] I
S1END[3] I
S2END[0] I
S2END[1] I
S2END[2] I
S2END[3] I
S2END[4] I
S2END[5] I
S2END[6] I
S2END[7] I
S2MID[0] I
S2MID[1] I
S2MID[2] I
S2MID[3] I
S2MID[4] I
S2MID[5] I
S2MID[6] I
S2MID[7] I
S4END[0] I
S4END[10] I
S4END[11] I
S4END[12] I
S4END[13] I
S4END[14] I
S4END[15] I
S4END[1] I
S4END[2] I
S4END[3] I
S4END[4] I
S4END[5] I
S4END[6] I
S4END[7] I
S4END[8] I
S4END[9] I
SS4END[0] I
SS4END[10] I
SS4END[11] I
SS4END[12] I
SS4END[13] I
SS4END[14] I
SS4END[15] I
SS4END[1] I
SS4END[2] I
SS4END[3] I
SS4END[4] I
SS4END[5] I
SS4END[6] I
SS4END[7] I
SS4END[8] I
SS4END[9] I
UserCLK I
UserCLKo O

*D_NET *1 0.0518641
*CONN
*P FrameData[0] I
*I *905:I I *D gf180mcu_fd_sc_mcu7t5v0__buf_2
*CAP
1 FrameData[0] 0.00222797
2 *905:I 0
3 *1:67 0.00152553
4 *1:45 0.00390528
5 *1:15 0.00460772
6 *1:15 *907:I 0.00237744
7 *1:15 *1066:I 0.000501262
8 *1:15 *6:29 0.000415449
9 *1:15 *12:19 0.000213412
10 *1:15 *14:23 0.000402514
11 *1:15 *22:23 0.000147067
12 *1:15 *27:27 8.66084e-05
13 *1:15 *29:27 0.000495687
14 *1:15 *30:29 0.00302714
15 *1:15 *200:57 0.000250884
16 *1:15 *207:47 0.00283452
17 *1:15 *218:28 3.16375e-05
18 *1:15 *304:24 0.0021637
19 *1:45 *951:I 0
20 *1:45 *958:I 0.00177313
21 *1:45 *1003:I 0.00022784
22 *1:45 *14:43 0.00107027
23 *1:45 *19:57 8.55242e-05
24 *1:45 *24:37 8.05328e-06
25 *1:45 *27:59 0.000859715
26 *1:45 *65:53 0.000908841
27 *1:45 *66:41 0.000934634
28 *1:45 *79:37 0.000385616
29 *1:45 *82:33 0.000378809
30 *1:45 *84:29 4.2413e-06
31 *1:45 *159:51 0.000923142
32 *1:45 *195:43 1.34128e-05
33 *1:45 *208:89 0.00176312
34 *1:45 *226:20 8.93318e-05
35 *1:45 *226:36 0.00118425
36 *1:45 *227:30 0.00113477
37 *1:45 *227:52 5.12017e-05
38 *1:45 *234:36 0.000460165
39 *1:45 *248:26 4.00365e-05
40 *1:45 *265:36 0.000706798
41 *1:45 *266:48 0.000514804
42 *1:67 *906:I 0.00237196
43 *1:67 *920:I 9.88736e-06
44 *1:67 *962:I 0.00043649
45 *1:67 *1006:I 0.00125753
46 *1:67 *2:63 0.000498136
47 *1:67 *2:95 0.000706654
48 *1:67 *9:47 3.37585e-05
49 *1:67 *10:49 0.00158395
50 *1:67 *14:43 6.3621e-06
51 *1:67 *68:25 0.000155636
52 *1:67 *84:29 0.000482679
53 *1:67 *196:17 9.07947e-05
54 *1:67 *203:31 0.00143331
55 *1:67 *226:56 0.000403107
56 *1:67 *250:42 0.0001517
57 *1:67 *253:54 0.00161309
58 *1:67 *254:24 0.000219532
59 *1:67 *275:58 0.00091651
60 *1:67 *299:46 0.000127584
61 *1:67 *313:38 0.00063396
*RES
1 FrameData[0] *1:15 44.698 
2 *1:15 *1:45 49.252 
3 *1:45 *1:67 47.58 
4 *1:67 *905:I 4.5 
*END

*D_NET *2 0.0512026
*CONN
*P FrameData[10] I
*I *915:I I *D gf180mcu_fd_sc_mcu7t5v0__buf_2
*CAP
1 FrameData[10] 0.00258835
2 *915:I 0.000755821
3 *2:95 0.00228663
4 *2:63 0.00302943
5 *2:33 0.00408697
6 *915:I *1048:I 0.00336544
7 *915:I *1061:I 0.0021709
8 *915:I *72:17 4.1074e-05
9 *915:I *178:27 0.00016889
10 *915:I *182:31 9.09812e-05
11 *915:I *224:18 0.000190401
12 *915:I *241:24 0.000249748
13 *915:I *256:32 0.000471242
14 *2:33 *907:I 0.00129394
15 *2:33 *983:I 0.000116634
16 *2:33 *986:I 0.000487378
17 *2:33 *1003:I 0.000306407
18 *2:33 *1065:I 0
19 *2:33 *1090:I 0.000201325
20 *2:33 *1097:I 0.000256477
21 *2:33 *1114:I 0.000173734
22 *2:33 *3:25 0.00013154
23 *2:33 *4:21 0.000172143
24 *2:33 *6:29 0.000730011
25 *2:33 *7:33 5.10924e-05
26 *2:33 *13:37 0.00183912
27 *2:33 *27:27 1.20889e-05
28 *2:33 *27:59 7.58614e-05
29 *2:33 *29:27 0.000802337
30 *2:33 *30:29 0
31 *2:33 *32:25 0.000177728
32 *2:33 *71:77 0.00037566
33 *2:33 *76:27 0.000416705
34 *2:33 *77:31 1.33998e-05
35 *2:33 *218:28 0.00011711
36 *2:33 *226:20 0
37 *2:33 *234:24 0.000295353
38 *2:33 *251:22 0.000270299
39 *2:33 *266:22 5.90216e-05
40 *2:33 *281:38 0.000140151
41 *2:33 *287:28 0.000199179
42 *2:33 *311:26 2.6126e-05
43 *2:63 *943:I 0.000184871
44 *2:63 *1006:I 0.00189915
45 *2:63 *1012:I 0.000177725
46 *2:63 *1066:I 0.000180435
47 *2:63 *1083:I 6.89518e-05
48 *2:63 *1114:I 0.000179736
49 *2:63 *7:33 2.65866e-05
50 *2:63 *7:79 0.00122715
51 *2:63 *9:47 0.0012273
52 *2:63 *27:59 0
53 *2:63 *76:27 0.000264223
54 *2:63 *77:31 0.00141688
55 *2:63 *192:19 0.0011979
56 *2:63 *204:25 9.53233e-06
57 *2:63 *207:47 0.000179647
58 *2:63 *225:50 0.00186134
59 *2:63 *234:24 0.000828601
60 *2:63 *253:20 0.000790617
61 *2:63 *278:60 8.27163e-05
62 *2:63 *281:38 6.35767e-06
63 *2:63 *309:30 0.000751406
64 *2:95 *1063:I 0.000193854
65 *2:95 *9:47 0.000534048
66 *2:95 *10:49 0.000545642
67 *2:95 *68:25 0.000120753
68 *2:95 *71:29 6.03972e-05
69 *2:95 *77:51 0.00160484
70 *2:95 *171:37 0.00193841
71 *2:95 *187:31 0.000588115
72 *2:95 *195:23 0.000767013
73 *2:95 *196:17 3.63387e-05
74 *2:95 *201:33 1.31633e-05
75 *2:95 *208:33 0.000110129
76 *2:95 *221:22 0.000138515
77 *2:95 *246:18 9.02535e-05
78 *2:95 *262:26 0.00103328
79 *2:95 *288:24 0.000780219
80 *2:95 *299:46 0.000614434
81 *2:95 *303:22 3.06194e-05
82 *1:67 *2:63 0.000498136
83 *1:67 *2:95 0.000706654
*RES
1 FrameData[10] *2:33 49.974 
2 *2:33 *2:63 49.5557 
3 *2:63 *2:95 47.368 
4 *2:95 *915:I 26.42 
*END

*D_NET *3 0.0318026
*CONN
*P FrameData[11] I
*I *916:I I *D gf180mcu_fd_sc_mcu7t5v0__buf_2
*CAP
1 FrameData[11] 0.00162198
2 *916:I 0.0011486
3 *3:25 0.00277059
4 *916:I *920:I 5.61677e-06
5 *916:I *933:I 0.000808722
6 *916:I *947:I 2.49387e-05
7 *916:I *957:I 7.88492e-05
8 *916:I *961:I 8.6985e-05
9 *916:I *968:I 0.000736353
10 *916:I *1103:I 3.09846e-05
11 *916:I *1112:I 0.000243173
12 *916:I *8:69 0.000772153
13 *916:I *27:59 0.00136468
14 *916:I *68:25 5.00395e-05
15 *916:I *170:31 0.00099613
16 *916:I *177:33 0.00020009
17 *916:I *190:37 0.000908468
18 *916:I *197:37 0.00137868
19 *916:I *200:29 3.88203e-05
20 *916:I *246:18 0.00135926
21 *916:I *262:26 0.00124135
22 *916:I *289:32 6.17482e-06
23 *916:I *303:60 0.000249023
24 *3:25 *907:I 8.89403e-05
25 *3:25 *934:I 0.000732567
26 *3:25 *936:I 0.00137119
27 *3:25 *951:I 0.00048635
28 *3:25 *986:I 0.000703487
29 *3:25 *1004:I 0.00242726
30 *3:25 *1067:I 0.000239333
31 *3:25 *4:21 0.000366749
32 *3:25 *7:33 0.00434968
33 *3:25 *10:25 0.00141928
34 *3:25 *19:23 0.00101345
35 *3:25 *29:27 0.000177234
36 *3:25 *190:59 0.000137785
37 *3:25 *192:19 0.000314583
38 *3:25 *209:23 1.4351e-05
39 *3:25 *234:24 2.2499e-05
40 *3:25 *237:24 0.000870531
41 *3:25 *311:26 0.000814127
42 *2:33 *3:25 0.00013154
*RES
1 FrameData[11] *3:25 47.678 
2 *3:25 *916:I 45.316 
*END

*D_NET *4 0.055714
*CONN
*P FrameData[12] I
*I *917:I I *D gf180mcu_fd_sc_mcu7t5v0__buf_2
*CAP
1 FrameData[12] 0.00138648
2 *917:I 0.00175607
3 *4:103 0.00299213
4 *4:61 0.0036371
5 *4:21 0.00378752
6 *917:I FrameStrobe_O[10] 0.000228407
7 *917:I *940:I 0.000140167
8 *917:I *956:I 3.01986e-05
9 *917:I *973:I 0
10 *917:I *984:I 0.00124829
11 *917:I *987:I 0.000598581
12 *917:I *1022:I 0.00153851
13 *917:I *1026:I 0
14 *917:I *18:45 0.000716473
15 *917:I *71:49 0.000315585
16 *917:I *78:51 0.000373709
17 *917:I *180:35 0.000373177
18 *917:I *206:21 0.000241786
19 *917:I *207:27 8.64697e-06
20 *917:I *208:33 0.000984821
21 *917:I *227:70 0.00145167
22 *917:I *228:16 0.000188557
23 *917:I *241:24 0.000226133
24 *917:I *262:26 0.0023806
25 *917:I *265:54 0.00170299
26 *917:I *277:46 0.00144649
27 *917:I *299:24 0.000673354
28 *4:21 *907:I 0.000503623
29 *4:21 *918:I 0.000276121
30 *4:21 *989:I 0.00252676
31 *4:21 *999:I 0.00109296
32 *4:21 *1069:I 0.00204903
33 *4:21 *1089:I 0.00150883
34 *4:21 *5:15 0.00029149
35 *4:21 *7:33 0
36 *4:21 *13:37 0
37 *4:21 *19:57 4.78829e-05
38 *4:21 *29:27 0.00035797
39 *4:21 *32:25 0.000469575
40 *4:21 *65:21 0
41 *4:21 *216:16 0.00204979
42 *4:21 *225:24 0.00102152
43 *4:21 *250:26 0.00394922
44 *4:21 *251:22 1.74257e-05
45 *4:21 *266:22 0.000299226
46 *4:61 *1085:I 3.60726e-05
47 *4:61 *1094:I 0.000297468
48 *4:61 *7:79 0.000295991
49 *4:61 *8:25 0
50 *4:61 *8:69 0.000296132
51 *4:61 *13:63 0.00127499
52 *4:61 *27:59 0.000144461
53 *4:61 *65:53 0.000223479
54 *4:61 *168:33 1.35052e-06