* NGSPICE file created from S_term_SRAM.ext - technology: gf180mcuD

* Black-box entry subcircuit for gf180mcu_fd_sc_mcu7t5v0__antenna abstract view
.subckt gf180mcu_fd_sc_mcu7t5v0__antenna I VDD VNW VPW VSS
.ends

* Black-box entry subcircuit for gf180mcu_fd_sc_mcu7t5v0__fill_2 abstract view
.subckt gf180mcu_fd_sc_mcu7t5v0__fill_2 VDD VNW VPW VSS
.ends

* Black-box entry subcircuit for gf180mcu_fd_sc_mcu7t5v0__buf_2 abstract view
.subckt gf180mcu_fd_sc_mcu7t5v0__buf_2 I Z VDD VNW VPW VSS
.ends

* Black-box entry subcircuit for gf180mcu_fd_sc_mcu7t5v0__fillcap_8 abstract view
.subckt gf180mcu_fd_sc_mcu7t5v0__fillcap_8 VDD VNW VPW VSS
.ends

* Black-box entry subcircuit for gf180mcu_fd_sc_mcu7t5v0__filltie abstract view
.subckt gf180mcu_fd_sc_mcu7t5v0__filltie VDD VSS
.ends

* Black-box entry subcircuit for gf180mcu_fd_sc_mcu7t5v0__fillcap_16 abstract view
.subckt gf180mcu_fd_sc_mcu7t5v0__fillcap_16 VDD VNW VPW VSS
.ends

* Black-box entry subcircuit for gf180mcu_fd_sc_mcu7t5v0__fill_1 abstract view
.subckt gf180mcu_fd_sc_mcu7t5v0__fill_1 VDD VNW VPW VSS
.ends

* Black-box entry subcircuit for gf180mcu_fd_sc_mcu7t5v0__buf_4 abstract view
.subckt gf180mcu_fd_sc_mcu7t5v0__buf_4 I Z VDD VNW VPW VSS
.ends

* Black-box entry subcircuit for gf180mcu_fd_sc_mcu7t5v0__fillcap_4 abstract view
.subckt gf180mcu_fd_sc_mcu7t5v0__fillcap_4 VDD VNW VPW VSS
.ends

* Black-box entry subcircuit for gf180mcu_fd_sc_mcu7t5v0__endcap abstract view
.subckt gf180mcu_fd_sc_mcu7t5v0__endcap VDD VSS
.ends

* Black-box entry subcircuit for gf180mcu_fd_sc_mcu7t5v0__fillcap_32 abstract view
.subckt gf180mcu_fd_sc_mcu7t5v0__fillcap_32 VDD VNW VPW VSS
.ends

* Black-box entry subcircuit for gf180mcu_fd_sc_mcu7t5v0__fillcap_64 abstract view
.subckt gf180mcu_fd_sc_mcu7t5v0__fillcap_64 VDD VNW VPW VSS
.ends

* Black-box entry subcircuit for gf180mcu_fd_sc_mcu7t5v0__buf_1 abstract view
.subckt gf180mcu_fd_sc_mcu7t5v0__buf_1 I Z VDD VNW VPW VSS
.ends

.subckt S_term_SRAM FrameData[0] FrameData[10] FrameData[11] FrameData[12] FrameData[13]
+ FrameData[14] FrameData[15] FrameData[16] FrameData[17] FrameData[18] FrameData[19]
+ FrameData[1] FrameData[20] FrameData[21] FrameData[22] FrameData[23] FrameData[24]
+ FrameData[25] FrameData[26] FrameData[27] FrameData[28] FrameData[29] FrameData[2]
+ FrameData[30] FrameData[31] FrameData[3] FrameData[4] FrameData[5] FrameData[6]
+ FrameData[7] FrameData[8] FrameData[9] FrameData_O[0] FrameData_O[10] FrameData_O[11]
+ FrameData_O[12] FrameData_O[13] FrameData_O[14] FrameData_O[15] FrameData_O[16]
+ FrameData_O[17] FrameData_O[18] FrameData_O[19] FrameData_O[1] FrameData_O[20] FrameData_O[21]
+ FrameData_O[22] FrameData_O[23] FrameData_O[24] FrameData_O[25] FrameData_O[26]
+ FrameData_O[27] FrameData_O[28] FrameData_O[29] FrameData_O[2] FrameData_O[30] FrameData_O[31]
+ FrameData_O[3] FrameData_O[4] FrameData_O[5] FrameData_O[6] FrameData_O[7] FrameData_O[8]
+ FrameData_O[9] FrameStrobe[0] FrameStrobe[10] FrameStrobe[11] FrameStrobe[12] FrameStrobe[13]
+ FrameStrobe[14] FrameStrobe[15] FrameStrobe[16] FrameStrobe[17] FrameStrobe[18]
+ FrameStrobe[19] FrameStrobe[1] FrameStrobe[2] FrameStrobe[3] FrameStrobe[4] FrameStrobe[5]
+ FrameStrobe[6] FrameStrobe[7] FrameStrobe[8] FrameStrobe[9] FrameStrobe_O[0] FrameStrobe_O[10]
+ FrameStrobe_O[11] FrameStrobe_O[12] FrameStrobe_O[13] FrameStrobe_O[14] FrameStrobe_O[15]
+ FrameStrobe_O[16] FrameStrobe_O[17] FrameStrobe_O[18] FrameStrobe_O[19] FrameStrobe_O[1]
+ FrameStrobe_O[2] FrameStrobe_O[3] FrameStrobe_O[4] FrameStrobe_O[5] FrameStrobe_O[6]
+ FrameStrobe_O[7] FrameStrobe_O[8] FrameStrobe_O[9] N1BEG[0] N1BEG[1] N1BEG[2] N1BEG[3]
+ N2BEG[0] N2BEG[1] N2BEG[2] N2BEG[3] N2BEG[4] N2BEG[5] N2BEG[6] N2BEG[7] N2BEGb[0]
+ N2BEGb[1] N2BEGb[2] N2BEGb[3] N2BEGb[4] N2BEGb[5] N2BEGb[6] N2BEGb[7] N4BEG[0] N4BEG[10]
+ N4BEG[11] N4BEG[12] N4BEG[13] N4BEG[14] N4BEG[15] N4BEG[1] N4BEG[2] N4BEG[3] N4BEG[4]
+ N4BEG[5] N4BEG[6] N4BEG[7] N4BEG[8] N4BEG[9] S1END[0] S1END[1] S1END[2] S1END[3]
+ S2END[0] S2END[1] S2END[2] S2END[3] S2END[4] S2END[5] S2END[6] S2END[7] S2MID[0]
+ S2MID[1] S2MID[2] S2MID[3] S2MID[4] S2MID[5] S2MID[6] S2MID[7] S4END[0] S4END[10]
+ S4END[11] S4END[12] S4END[13] S4END[14] S4END[15] S4END[1] S4END[2] S4END[3] S4END[4]
+ S4END[5] S4END[6] S4END[7] S4END[8] S4END[9] UserCLK UserCLKo VDD VSS
XANTENNA__09__I FrameData[9] VDD VDD VSS VSS gf180mcu_fd_sc_mcu7t5v0__antenna
XFILLER_13_155 VDD VDD VSS VSS gf180mcu_fd_sc_mcu7t5v0__fill_2
X_83_ S4END[4] net75 VDD VDD VSS VSS gf180mcu_fd_sc_mcu7t5v0__buf_2
XFILLER_6_107 VDD VDD VSS VSS gf180mcu_fd_sc_mcu7t5v0__fillcap_8
XTAP_TAPCELL_ROW_8_66 VDD VSS gf180mcu_fd_sc_mcu7t5v0__filltie
XFILLER_10_147 VDD VDD VSS VSS gf180mcu_fd_sc_mcu7t5v0__fillcap_16
XFILLER_10_136 VDD VDD VSS VSS gf180mcu_fd_sc_mcu7t5v0__fill_1
X_66_ S2END[5] net67 VDD VDD VSS VSS gf180mcu_fd_sc_mcu7t5v0__buf_2
XANTENNA__22__I FrameData[22] VDD VDD VSS VSS gf180mcu_fd_sc_mcu7t5v0__antenna
XFILLER_2_198 VDD VDD VSS VSS gf180mcu_fd_sc_mcu7t5v0__fill_2
X_49_ FrameStrobe[17] net41 VDD VDD VSS VSS gf180mcu_fd_sc_mcu7t5v0__buf_2
XANTENNA__17__I FrameData[17] VDD VDD VSS VSS gf180mcu_fd_sc_mcu7t5v0__antenna
XFILLER_7_224 VDD VDD VSS VSS gf180mcu_fd_sc_mcu7t5v0__fill_2
XFILLER_6_34 VDD VDD VSS VSS gf180mcu_fd_sc_mcu7t5v0__fill_1
XANTENNA__30__I FrameData[30] VDD VDD VSS VSS gf180mcu_fd_sc_mcu7t5v0__antenna
Xoutput42 net42 FrameStrobe_O[18] VDD VDD VSS VSS gf180mcu_fd_sc_mcu7t5v0__buf_4
Xoutput20 net20 FrameData_O[27] VDD VDD VSS VSS gf180mcu_fd_sc_mcu7t5v0__buf_4
Xoutput75 net75 N4BEG[11] VDD VDD VSS VSS gf180mcu_fd_sc_mcu7t5v0__buf_4
Xoutput64 net64 N2BEG[7] VDD VDD VSS VSS gf180mcu_fd_sc_mcu7t5v0__buf_4
Xoutput86 net86 N4BEG[7] VDD VDD VSS VSS gf180mcu_fd_sc_mcu7t5v0__buf_4
Xoutput53 net53 N1BEG[0] VDD VDD VSS VSS gf180mcu_fd_sc_mcu7t5v0__buf_4
Xoutput31 net31 FrameData_O[8] VDD VDD VSS VSS gf180mcu_fd_sc_mcu7t5v0__buf_4
Xoutput7 net7 FrameData_O[15] VDD VDD VSS VSS gf180mcu_fd_sc_mcu7t5v0__buf_4
XANTENNA__25__I FrameData[25] VDD VDD VSS VSS gf180mcu_fd_sc_mcu7t5v0__antenna
XFILLER_13_123 VDD VDD VSS VSS gf180mcu_fd_sc_mcu7t5v0__fillcap_4
XTAP_TAPCELL_ROW_12_77 VDD VSS gf180mcu_fd_sc_mcu7t5v0__filltie
X_82_ S4END[5] net74 VDD VDD VSS VSS gf180mcu_fd_sc_mcu7t5v0__buf_2
XFILLER_6_119 VDD VDD VSS VSS gf180mcu_fd_sc_mcu7t5v0__fill_1
XFILLER_10_115 VDD VDD VSS VSS gf180mcu_fd_sc_mcu7t5v0__fill_1
X_65_ S2END[6] net66 VDD VDD VSS VSS gf180mcu_fd_sc_mcu7t5v0__buf_2
XPHY_EDGE_ROW_12_Right_12 VDD VSS gf180mcu_fd_sc_mcu7t5v0__endcap
XFILLER_0_36 VDD VDD VSS VSS gf180mcu_fd_sc_mcu7t5v0__fillcap_32
XFILLER_2_155 VDD VDD VSS VSS gf180mcu_fd_sc_mcu7t5v0__fillcap_16
XFILLER_2_177 VDD VDD VSS VSS gf180mcu_fd_sc_mcu7t5v0__fillcap_4
XFILLER_3_2 VDD VDD VSS VSS gf180mcu_fd_sc_mcu7t5v0__fillcap_64
XANTENNA__33__I FrameStrobe[1] VDD VDD VSS VSS gf180mcu_fd_sc_mcu7t5v0__antenna
X_48_ FrameStrobe[16] net40 VDD VDD VSS VSS gf180mcu_fd_sc_mcu7t5v0__buf_2
XANTENNA__28__I FrameData[28] VDD VDD VSS VSS gf180mcu_fd_sc_mcu7t5v0__antenna
XTAP_TAPCELL_ROW_15_88 VDD VSS gf180mcu_fd_sc_mcu7t5v0__filltie
XFILLER_1_209 VDD VDD VSS VSS gf180mcu_fd_sc_mcu7t5v0__fill_1
XPHY_EDGE_ROW_6_Right_6 VDD VSS gf180mcu_fd_sc_mcu7t5v0__endcap
Xoutput76 net76 N4BEG[12] VDD VDD VSS VSS gf180mcu_fd_sc_mcu7t5v0__buf_4
Xoutput87 net87 N4BEG[8] VDD VDD VSS VSS gf180mcu_fd_sc_mcu7t5v0__buf_4
Xoutput65 net65 N2BEGb[0] VDD VDD VSS VSS gf180mcu_fd_sc_mcu7t5v0__buf_4
Xoutput43 net43 FrameStrobe_O[19] VDD VDD VSS VSS gf180mcu_fd_sc_mcu7t5v0__buf_4
Xoutput32 net32 FrameData_O[9] VDD VDD VSS VSS gf180mcu_fd_sc_mcu7t5v0__buf_4
Xoutput8 net8 FrameData_O[16] VDD VDD VSS VSS gf180mcu_fd_sc_mcu7t5v0__buf_4
Xoutput10 net10 FrameData_O[18] VDD VDD VSS VSS gf180mcu_fd_sc_mcu7t5v0__buf_4
Xoutput54 net54 N1BEG[1] VDD VDD VSS VSS gf180mcu_fd_sc_mcu7t5v0__buf_4
Xoutput21 net21 FrameData_O[28] VDD VDD VSS VSS gf180mcu_fd_sc_mcu7t5v0__buf_4
XANTENNA__41__I FrameStrobe[9] VDD VDD VSS VSS gf180mcu_fd_sc_mcu7t5v0__antenna
XFILLER_13_146 VDD VDD VSS VSS gf180mcu_fd_sc_mcu7t5v0__fill_2
X_81_ S4END[6] net88 VDD VDD VSS VSS gf180mcu_fd_sc_mcu7t5v0__buf_2
XFILLER_8_172 VDD VDD VSS VSS gf180mcu_fd_sc_mcu7t5v0__fill_2
XANTENNA__36__I FrameStrobe[4] VDD VDD VSS VSS gf180mcu_fd_sc_mcu7t5v0__antenna
XTAP_TAPCELL_ROW_12_78 VDD VSS gf180mcu_fd_sc_mcu7t5v0__filltie
X_64_ S2END[7] net65 VDD VDD VSS VSS gf180mcu_fd_sc_mcu7t5v0__buf_2
XFILLER_5_142 VDD VDD VSS VSS gf180mcu_fd_sc_mcu7t5v0__fill_1
XFILLER_14_241 VDD VDD VSS VSS gf180mcu_fd_sc_mcu7t5v0__fill_2
XFILLER_2_101 VDD VDD VSS VSS gf180mcu_fd_sc_mcu7t5v0__fillcap_4
X_47_ FrameStrobe[15] net39 VDD VDD VSS VSS gf180mcu_fd_sc_mcu7t5v0__buf_2
XFILLER_7_226 VDD VDD VSS VSS gf180mcu_fd_sc_mcu7t5v0__fill_1
XANTENNA__44__I FrameStrobe[12] VDD VDD VSS VSS gf180mcu_fd_sc_mcu7t5v0__antenna
XFILLER_3_240 VDD VDD VSS VSS gf180mcu_fd_sc_mcu7t5v0__fill_1
XTAP_TAPCELL_ROW_15_89 VDD VSS gf180mcu_fd_sc_mcu7t5v0__filltie
XANTENNA__39__I FrameStrobe[7] VDD VDD VSS VSS gf180mcu_fd_sc_mcu7t5v0__antenna
Xoutput33 net33 FrameStrobe_O[0] VDD VDD VSS VSS gf180mcu_fd_sc_mcu7t5v0__buf_4
Xoutput44 net44 FrameStrobe_O[1] VDD VDD VSS VSS gf180mcu_fd_sc_mcu7t5v0__buf_4
Xoutput77 net77 N4BEG[13] VDD VDD VSS VSS gf180mcu_fd_sc_mcu7t5v0__buf_4
Xoutput88 net88 N4BEG[9] VDD VDD VSS VSS gf180mcu_fd_sc_mcu7t5v0__buf_4
Xoutput66 net66 N2BEGb[1] VDD VDD VSS VSS gf180mcu_fd_sc_mcu7t5v0__buf_4
Xoutput55 net55 N1BEG[2] VDD VDD VSS VSS gf180mcu_fd_sc_mcu7t5v0__buf_4
Xoutput11 net11 FrameData_O[19] VDD VDD VSS VSS gf180mcu_fd_sc_mcu7t5v0__buf_4
Xoutput22 net22 FrameData_O[29] VDD VDD VSS VSS gf180mcu_fd_sc_mcu7t5v0__buf_4
Xoutput9 net9 FrameData_O[17] VDD VDD VSS VSS gf180mcu_fd_sc_mcu7t5v0__buf_4
XFILLER_11_2 VDD VDD VSS VSS gf180mcu_fd_sc_mcu7t5v0__fillcap_16
XFILLER_9_129 VDD VDD VSS VSS gf180mcu_fd_sc_mcu7t5v0__fill_1
X_80_ S4END[7] net87 VDD VDD VSS VSS gf180mcu_fd_sc_mcu7t5v0__buf_2
XFILLER_8_140 VDD VDD VSS VSS gf180mcu_fd_sc_mcu7t5v0__fillcap_32
XTAP_TAPCELL_ROW_12_79 VDD VSS gf180mcu_fd_sc_mcu7t5v0__filltie
XANTENNA__52__I S1END[3] VDD VDD VSS VSS gf180mcu_fd_sc_mcu7t5v0__antenna
X_63_ S2MID[0] net64 VDD VDD VSS VSS gf180mcu_fd_sc_mcu7t5v0__buf_2
XANTENNA__47__I FrameStrobe[15] VDD VDD VSS VSS gf180mcu_fd_sc_mcu7t5v0__antenna
XFILLER_2_146 VDD VDD VSS VSS gf180mcu_fd_sc_mcu7t5v0__fill_1
X_46_ FrameStrobe[14] net38 VDD VDD VSS VSS gf180mcu_fd_sc_mcu7t5v0__buf_2
XPHY_EDGE_ROW_12_Left_28 VDD VSS gf180mcu_fd_sc_mcu7t5v0__endcap
X_29_ FrameData[29] net22 VDD VDD VSS VSS gf180mcu_fd_sc_mcu7t5v0__buf_2
XANTENNA__60__I S2MID[3] VDD VDD VSS VSS gf180mcu_fd_sc_mcu7t5v0__antenna
XFILLER_6_37 VDD VDD VSS VSS gf180mcu_fd_sc_mcu7t5v0__fillcap_64
Xoutput45 net45 FrameStrobe_O[2] VDD VDD VSS VSS gf180mcu_fd_sc_mcu7t5v0__buf_4
Xoutput78 net78 N4BEG[14] VDD VDD VSS VSS gf180mcu_fd_sc_mcu7t5v0__buf_4
Xoutput34 net34 FrameStrobe_O[10] VDD VDD VSS VSS gf180mcu_fd_sc_mcu7t5v0__buf_4
Xoutput89 net89 UserCLKo VDD VDD VSS VSS gf180mcu_fd_sc_mcu7t5v0__buf_1
Xoutput23 net23 FrameData_O[2] VDD VDD VSS VSS gf180mcu_fd_sc_mcu7t5v0__buf_4
Xoutput12 net12 FrameData_O[1] VDD VDD VSS VSS gf180mcu_fd_sc_mcu7t5v0__buf_4
XANTENNA__55__I S1END[0] VDD VDD VSS VSS gf180mcu_fd_sc_mcu7t5v0__antenna
Xoutput56 net56 N1BEG[3] VDD VDD VSS VSS gf180mcu_fd_sc_mcu7t5v0__buf_4
Xoutput67 net67 N2BEGb[2] VDD VDD VSS VSS gf180mcu_fd_sc_mcu7t5v0__buf_4
XPHY_EDGE_ROW_15_Left_31 VDD VSS gf180mcu_fd_sc_mcu7t5v0__endcap
XFILLER_13_148 VDD VDD VSS VSS gf180mcu_fd_sc_mcu7t5v0__fill_1
XFILLER_13_159 VDD VDD VSS VSS gf180mcu_fd_sc_mcu7t5v0__fill_2
XFILLER_8_174 VDD VDD VSS VSS gf180mcu_fd_sc_mcu7t5v0__fill_1
XFILLER_10_107 VDD VDD VSS VSS gf180mcu_fd_sc_mcu7t5v0__fillcap_8
XFILLER_10_118 VDD VDD VSS VSS gf180mcu_fd_sc_mcu7t5v0__fillcap_8
XPHY_EDGE_ROW_0_Left_16 VDD VSS gf180mcu_fd_sc_mcu7t5v0__endcap
X_62_ S2MID[1] net63 VDD VDD VSS VSS gf180mcu_fd_sc_mcu7t5v0__buf_2
XANTENNA__63__I S2MID[0] VDD VDD VSS VSS gf180mcu_fd_sc_mcu7t5v0__antenna
XANTENNA__58__I S2MID[5] VDD VDD VSS VSS gf180mcu_fd_sc_mcu7t5v0__antenna
X_45_ FrameStrobe[13] net37 VDD VDD VSS VSS gf180mcu_fd_sc_mcu7t5v0__buf_2
XFILLER_1_2 VDD VDD VSS VSS gf180mcu_fd_sc_mcu7t5v0__fillcap_64
XFILLER_7_206 VDD VDD VSS VSS gf180mcu_fd_sc_mcu7t5v0__fillcap_4
X_28_ FrameData[28] net21 VDD VDD VSS VSS gf180mcu_fd_sc_mcu7t5v0__buf_2
Xoutput57 net57 N2BEG[0] VDD VDD VSS VSS gf180mcu_fd_sc_mcu7t5v0__buf_4
XFILLER_15_36 VDD VDD VSS VSS gf180mcu_fd_sc_mcu7t5v0__fillcap_4
Xoutput24 net24 FrameData_O[30] VDD VDD VSS VSS gf180mcu_fd_sc_mcu7t5v0__buf_4
Xoutput46 net46 FrameStrobe_O[3] VDD VDD VSS VSS gf180mcu_fd_sc_mcu7t5v0__buf_4
Xoutput13 net13 FrameData_O[20] VDD VDD VSS VSS gf180mcu_fd_sc_mcu7t5v0__buf_4
Xoutput35 net35 FrameStrobe_O[11] VDD VDD VSS VSS gf180mcu_fd_sc_mcu7t5v0__buf_4
XANTENNA__71__I S2END[0] VDD VDD VSS VSS gf180mcu_fd_sc_mcu7t5v0__antenna
Xoutput79 net79 N4BEG[15] VDD VDD VSS VSS gf180mcu_fd_sc_mcu7t5v0__buf_4
Xoutput68 net68 N2BEGb[3] VDD VDD VSS VSS gf180mcu_fd_sc_mcu7t5v0__buf_4
XANTENNA__66__I S2END[5] VDD VDD VSS VSS gf180mcu_fd_sc_mcu7t5v0__antenna
XFILLER_9_109 VDD VDD VSS VSS gf180mcu_fd_sc_mcu7t5v0__fillcap_16
XFILLER_12_37 VDD VDD VSS VSS gf180mcu_fd_sc_mcu7t5v0__fill_2
X_61_ S2MID[2] net62 VDD VDD VSS VSS gf180mcu_fd_sc_mcu7t5v0__buf_2
XFILLER_2_115 VDD VDD VSS VSS gf180mcu_fd_sc_mcu7t5v0__fill_1
XFILLER_2_126 VDD VDD VSS VSS gf180mcu_fd_sc_mcu7t5v0__fill_2
X_44_ FrameStrobe[12] net36 VDD VDD VSS VSS gf180mcu_fd_sc_mcu7t5v0__buf_2
XANTENNA__74__I S4END[13] VDD VDD VSS VSS gf180mcu_fd_sc_mcu7t5v0__antenna
XFILLER_1_72 VDD VDD VSS VSS gf180mcu_fd_sc_mcu7t5v0__fillcap_32
X_27_ FrameData[27] net20 VDD VDD VSS VSS gf180mcu_fd_sc_mcu7t5v0__buf_2
XANTENNA__69__I S2END[2] VDD VDD VSS VSS gf180mcu_fd_sc_mcu7t5v0__antenna
XTAP_TAPCELL_ROW_10_70 VDD VSS gf180mcu_fd_sc_mcu7t5v0__filltie
Xoutput36 net36 FrameStrobe_O[12] VDD VDD VSS VSS gf180mcu_fd_sc_mcu7t5v0__buf_4
Xoutput47 net47 FrameStrobe_O[4] VDD VDD VSS VSS gf180mcu_fd_sc_mcu7t5v0__buf_4
Xoutput69 net69 N2BEGb[4] VDD VDD VSS VSS gf180mcu_fd_sc_mcu7t5v0__buf_4
Xoutput58 net58 N2BEG[1] VDD VDD VSS VSS gf180mcu_fd_sc_mcu7t5v0__buf_4
Xoutput14 net14 FrameData_O[21] VDD VDD VSS VSS gf180mcu_fd_sc_mcu7t5v0__buf_4
Xoutput25 net25 FrameData_O[31] VDD VDD VSS VSS gf180mcu_fd_sc_mcu7t5v0__buf_4
XFILLER_13_139 VDD VDD VSS VSS gf180mcu_fd_sc_mcu7t5v0__fill_1
XANTENNA__82__I S4END[5] VDD VDD VSS VSS gf180mcu_fd_sc_mcu7t5v0__antenna
XFILLER_8_121 VDD VDD VSS VSS gf180mcu_fd_sc_mcu7t5v0__fill_1
XANTENNA__77__I S4END[10] VDD VDD VSS VSS gf180mcu_fd_sc_mcu7t5v0__antenna
X_60_ S2MID[3] net61 VDD VDD VSS VSS gf180mcu_fd_sc_mcu7t5v0__buf_2
XTAP_TAPCELL_ROW_13_81 VDD VSS gf180mcu_fd_sc_mcu7t5v0__filltie
X_43_ FrameStrobe[11] net35 VDD VDD VSS VSS gf180mcu_fd_sc_mcu7t5v0__buf_2
XFILLER_6_241 VDD VDD VSS VSS gf180mcu_fd_sc_mcu7t5v0__fillcap_4
XANTENNA__85__I S4END[2] VDD VDD VSS VSS gf180mcu_fd_sc_mcu7t5v0__antenna
X_26_ FrameData[26] net19 VDD VDD VSS VSS gf180mcu_fd_sc_mcu7t5v0__buf_2
XTAP_TAPCELL_ROW_10_71 VDD VSS gf180mcu_fd_sc_mcu7t5v0__filltie
X_09_ FrameData[9] net32 VDD VDD VSS VSS gf180mcu_fd_sc_mcu7t5v0__buf_2
Xoutput59 net59 N2BEG[2] VDD VDD VSS VSS gf180mcu_fd_sc_mcu7t5v0__buf_4
Xoutput15 net15 FrameData_O[22] VDD VDD VSS VSS gf180mcu_fd_sc_mcu7t5v0__buf_4
Xoutput37 net37 FrameStrobe_O[13] VDD VDD VSS VSS gf180mcu_fd_sc_mcu7t5v0__buf_4
Xoutput48 net48 FrameStrobe_O[5] VDD VDD VSS VSS gf180mcu_fd_sc_mcu7t5v0__buf_4
XPHY_EDGE_ROW_1_Right_1 VDD VSS gf180mcu_fd_sc_mcu7t5v0__endcap
Xoutput26 net26 FrameData_O[3] VDD VDD VSS VSS gf180mcu_fd_sc_mcu7t5v0__buf_4
XFILLER_7_50 VDD VDD VSS VSS gf180mcu_fd_sc_mcu7t5v0__fillcap_8
XFILLER_8_177 VDD VDD VSS VSS gf180mcu_fd_sc_mcu7t5v0__fillcap_32
XTAP_TAPCELL_ROW_13_82 VDD VSS gf180mcu_fd_sc_mcu7t5v0__filltie
XANTENNA__88__I UserCLK VDD VDD VSS VSS gf180mcu_fd_sc_mcu7t5v0__antenna
XFILLER_1_194 VDD VDD VSS VSS gf180mcu_fd_sc_mcu7t5v0__fill_1
X_42_ FrameStrobe[10] net34 VDD VDD VSS VSS gf180mcu_fd_sc_mcu7t5v0__buf_2
X_25_ FrameData[25] net18 VDD VDD VSS VSS gf180mcu_fd_sc_mcu7t5v0__buf_2
XFILLER_3_212 VDD VDD VSS VSS gf180mcu_fd_sc_mcu7t5v0__fillcap_16
XPHY_EDGE_ROW_7_Left_23 VDD VSS gf180mcu_fd_sc_mcu7t5v0__endcap
XTAP_TAPCELL_ROW_10_72 VDD VSS gf180mcu_fd_sc_mcu7t5v0__filltie
X_08_ FrameData[8] net31 VDD VDD VSS VSS gf180mcu_fd_sc_mcu7t5v0__buf_2
Xoutput49 net49 FrameStrobe_O[6] VDD VDD VSS VSS gf180mcu_fd_sc_mcu7t5v0__buf_4
Xoutput16 net16 FrameData_O[23] VDD VDD VSS VSS gf180mcu_fd_sc_mcu7t5v0__buf_4
Xoutput38 net38 FrameStrobe_O[14] VDD VDD VSS VSS gf180mcu_fd_sc_mcu7t5v0__buf_4
Xoutput27 net27 FrameData_O[4] VDD VDD VSS VSS gf180mcu_fd_sc_mcu7t5v0__buf_4
XPHY_EDGE_ROW_15_Right_15 VDD VSS gf180mcu_fd_sc_mcu7t5v0__endcap
XFILLER_8_101 VDD VDD VSS VSS gf180mcu_fd_sc_mcu7t5v0__fillcap_4
XFILLER_12_18 VDD VDD VSS VSS gf180mcu_fd_sc_mcu7t5v0__fill_2
XFILLER_5_104 VDD VDD VSS VSS gf180mcu_fd_sc_mcu7t5v0__fillcap_8
XFILLER_5_159 VDD VDD VSS VSS gf180mcu_fd_sc_mcu7t5v0__fillcap_32
XTAP_TAPCELL_ROW_13_83 VDD VSS gf180mcu_fd_sc_mcu7t5v0__filltie
XFILLER_2_107 VDD VDD VSS VSS gf180mcu_fd_sc_mcu7t5v0__fillcap_8
XFILLER_13_72 VDD VDD VSS VSS gf180mcu_fd_sc_mcu7t5v0__fill_1
X_41_ FrameStrobe[9] net52 VDD VDD VSS VSS gf180mcu_fd_sc_mcu7t5v0__buf_2
X_24_ FrameData[24] net17 VDD VDD VSS VSS gf180mcu_fd_sc_mcu7t5v0__buf_2
XTAP_TAPCELL_ROW_10_73 VDD VSS gf180mcu_fd_sc_mcu7t5v0__filltie
Xoutput39 net39 FrameStrobe_O[15] VDD VDD VSS VSS gf180mcu_fd_sc_mcu7t5v0__buf_4
Xoutput28 net28 FrameData_O[5] VDD VDD VSS VSS gf180mcu_fd_sc_mcu7t5v0__buf_4
X_07_ FrameData[7] net30 VDD VDD VSS VSS gf180mcu_fd_sc_mcu7t5v0__buf_2
Xoutput17 net17 FrameData_O[24] VDD VDD VSS VSS gf180mcu_fd_sc_mcu7t5v0__buf_4
XFILLER_15_172 VDD VDD VSS VSS gf180mcu_fd_sc_mcu7t5v0__fill_2
XFILLER_15_161 VDD VDD VSS VSS gf180mcu_fd_sc_mcu7t5v0__fill_1
XFILLER_7_74 VDD VDD VSS VSS gf180mcu_fd_sc_mcu7t5v0__fillcap_32
X_40_ FrameStrobe[8] net51 VDD VDD VSS VSS gf180mcu_fd_sc_mcu7t5v0__buf_2
XTAP_TAPCELL_ROW_0_32 VDD VSS gf180mcu_fd_sc_mcu7t5v0__filltie
X_23_ FrameData[23] net16 VDD VDD VSS VSS gf180mcu_fd_sc_mcu7t5v0__buf_2
Xoutput29 net29 FrameData_O[6] VDD VDD VSS VSS gf180mcu_fd_sc_mcu7t5v0__buf_4
XFILLER_0_206 VDD VDD VSS VSS gf180mcu_fd_sc_mcu7t5v0__fillcap_4
X_06_ FrameData[6] net29 VDD VDD VSS VSS gf180mcu_fd_sc_mcu7t5v0__buf_2
Xoutput18 net18 FrameData_O[25] VDD VDD VSS VSS gf180mcu_fd_sc_mcu7t5v0__buf_4
XFILLER_15_140 VDD VDD VSS VSS gf180mcu_fd_sc_mcu7t5v0__fill_1
XPHY_EDGE_ROW_5_Right_5 VDD VSS gf180mcu_fd_sc_mcu7t5v0__endcap
XANTENNA__01__I FrameData[1] VDD VDD VSS VSS gf180mcu_fd_sc_mcu7t5v0__antenna
XFILLER_1_142 VDD VDD VSS VSS gf180mcu_fd_sc_mcu7t5v0__fill_2
XTAP_TAPCELL_ROW_0_33 VDD VSS gf180mcu_fd_sc_mcu7t5v0__filltie
XFILLER_1_66 VDD VDD VSS VSS gf180mcu_fd_sc_mcu7t5v0__fillcap_4
X_22_ FrameData[22] net15 VDD VDD VSS VSS gf180mcu_fd_sc_mcu7t5v0__buf_2
X_05_ FrameData[5] net28 VDD VDD VSS VSS gf180mcu_fd_sc_mcu7t5v0__buf_2
XANTENNA__04__I FrameData[4] VDD VDD VSS VSS gf180mcu_fd_sc_mcu7t5v0__antenna
Xoutput19 net19 FrameData_O[26] VDD VDD VSS VSS gf180mcu_fd_sc_mcu7t5v0__buf_4
XFILLER_15_174 VDD VDD VSS VSS gf180mcu_fd_sc_mcu7t5v0__fill_1
XPHY_EDGE_ROW_11_Right_11 VDD VSS gf180mcu_fd_sc_mcu7t5v0__endcap
XFILLER_12_166 VDD VDD VSS VSS gf180mcu_fd_sc_mcu7t5v0__fill_1
XFILLER_8_115 VDD VDD VSS VSS gf180mcu_fd_sc_mcu7t5v0__fillcap_4
XFILLER_4_151 VDD VDD VSS VSS gf180mcu_fd_sc_mcu7t5v0__fillcap_16
XANTENNA__12__I FrameData[12] VDD VDD VSS VSS gf180mcu_fd_sc_mcu7t5v0__antenna
XTAP_TAPCELL_ROW_0_34 VDD VSS gf180mcu_fd_sc_mcu7t5v0__filltie
XFILLER_8_2 VDD VDD VSS VSS gf180mcu_fd_sc_mcu7t5v0__fillcap_32
XFILLER_11_209 VDD VDD VSS VSS gf180mcu_fd_sc_mcu7t5v0__fill_1
XANTENNA__07__I FrameData[7] VDD VDD VSS VSS gf180mcu_fd_sc_mcu7t5v0__antenna
X_21_ FrameData[21] net14 VDD VDD VSS VSS gf180mcu_fd_sc_mcu7t5v0__buf_2
XPHY_EDGE_ROW_11_Left_27 VDD VSS gf180mcu_fd_sc_mcu7t5v0__endcap
X_04_ FrameData[4] net27 VDD VDD VSS VSS gf180mcu_fd_sc_mcu7t5v0__buf_2
XANTENNA__20__I FrameData[20] VDD VDD VSS VSS gf180mcu_fd_sc_mcu7t5v0__antenna
XANTENNA__15__I FrameData[15] VDD VDD VSS VSS gf180mcu_fd_sc_mcu7t5v0__antenna
XFILLER_7_182 VDD VDD VSS VSS gf180mcu_fd_sc_mcu7t5v0__fillcap_16
XPHY_EDGE_ROW_14_Left_30 VDD VSS gf180mcu_fd_sc_mcu7t5v0__endcap
XFILLER_4_34 VDD VDD VSS VSS gf180mcu_fd_sc_mcu7t5v0__fill_1
XFILLER_1_155 VDD VDD VSS VSS gf180mcu_fd_sc_mcu7t5v0__fill_2
XFILLER_1_144 VDD VDD VSS VSS gf180mcu_fd_sc_mcu7t5v0__fill_1
XTAP_TAPCELL_ROW_0_35 VDD VSS gf180mcu_fd_sc_mcu7t5v0__filltie
XANTENNA__23__I FrameData[23] VDD VDD VSS VSS gf180mcu_fd_sc_mcu7t5v0__antenna
XFILLER_6_247 VDD VDD VSS VSS gf180mcu_fd_sc_mcu7t5v0__fillcap_8
X_20_ FrameData[20] net13 VDD VDD VSS VSS gf180mcu_fd_sc_mcu7t5v0__buf_2
XANTENNA__18__I FrameData[18] VDD VDD VSS VSS gf180mcu_fd_sc_mcu7t5v0__antenna
XFILLER_3_206 VDD VDD VSS VSS gf180mcu_fd_sc_mcu7t5v0__fillcap_4
XFILLER_3_228 VDD VDD VSS VSS gf180mcu_fd_sc_mcu7t5v0__fill_2
X_03_ FrameData[3] net26 VDD VDD VSS VSS gf180mcu_fd_sc_mcu7t5v0__buf_2
XTAP_TAPCELL_ROW_6_56 VDD VSS gf180mcu_fd_sc_mcu7t5v0__filltie
XFILLER_15_143 VDD VDD VSS VSS gf180mcu_fd_sc_mcu7t5v0__fillcap_4
XFILLER_7_34 VDD VDD VSS VSS gf180mcu_fd_sc_mcu7t5v0__fillcap_16
XANTENNA__31__I FrameData[31] VDD VDD VSS VSS gf180mcu_fd_sc_mcu7t5v0__antenna
XFILLER_12_146 VDD VDD VSS VSS gf180mcu_fd_sc_mcu7t5v0__fillcap_4
XTAP_TAPCELL_ROW_3_46 VDD VSS gf180mcu_fd_sc_mcu7t5v0__filltie
XFILLER_7_150 VDD VDD VSS VSS gf180mcu_fd_sc_mcu7t5v0__fillcap_32
XPHY_EDGE_ROW_9_Right_9 VDD VSS gf180mcu_fd_sc_mcu7t5v0__endcap
XANTENNA__26__I FrameData[26] VDD VDD VSS VSS gf180mcu_fd_sc_mcu7t5v0__antenna
XTAP_TAPCELL_ROW_0_36 VDD VSS gf180mcu_fd_sc_mcu7t5v0__filltie
XFILLER_1_167 VDD VDD VSS VSS gf180mcu_fd_sc_mcu7t5v0__fill_1
XTAP_TAPCELL_ROW_9_67 VDD VSS gf180mcu_fd_sc_mcu7t5v0__filltie
XFILLER_9_212 VDD VDD VSS VSS gf180mcu_fd_sc_mcu7t5v0__fill_1
X_79_ S4END[8] net86 VDD VDD VSS VSS gf180mcu_fd_sc_mcu7t5v0__buf_2
XANTENNA__34__I FrameStrobe[2] VDD VDD VSS VSS gf180mcu_fd_sc_mcu7t5v0__antenna
XFILLER_10_34 VDD VDD VSS VSS gf180mcu_fd_sc_mcu7t5v0__fill_1
XTAP_TAPCELL_ROW_6_57 VDD VSS gf180mcu_fd_sc_mcu7t5v0__filltie
XANTENNA__29__I FrameData[29] VDD VDD VSS VSS gf180mcu_fd_sc_mcu7t5v0__antenna
X_02_ FrameData[2] net23 VDD VDD VSS VSS gf180mcu_fd_sc_mcu7t5v0__buf_2
XFILLER_8_107 VDD VDD VSS VSS gf180mcu_fd_sc_mcu7t5v0__fillcap_8
XTAP_TAPCELL_ROW_3_47 VDD VSS gf180mcu_fd_sc_mcu7t5v0__filltie
XANTENNA__42__I FrameStrobe[10] VDD VDD VSS VSS gf180mcu_fd_sc_mcu7t5v0__antenna
XFILLER_4_143 VDD VDD VSS VSS gf180mcu_fd_sc_mcu7t5v0__fillcap_4
XANTENNA__37__I FrameStrobe[5] VDD VDD VSS VSS gf180mcu_fd_sc_mcu7t5v0__antenna
XTAP_TAPCELL_ROW_0_37 VDD VSS gf180mcu_fd_sc_mcu7t5v0__filltie
XTAP_TAPCELL_ROW_9_68 VDD VSS gf180mcu_fd_sc_mcu7t5v0__filltie
XFILLER_9_202 VDD VDD VSS VSS gf180mcu_fd_sc_mcu7t5v0__fill_2
XFILLER_6_2 VDD VDD VSS VSS gf180mcu_fd_sc_mcu7t5v0__fillcap_32
XANTENNA__50__I FrameStrobe[18] VDD VDD VSS VSS gf180mcu_fd_sc_mcu7t5v0__antenna
X_78_ S4END[9] net85 VDD VDD VSS VSS gf180mcu_fd_sc_mcu7t5v0__buf_2
XTAP_TAPCELL_ROW_6_58 VDD VSS gf180mcu_fd_sc_mcu7t5v0__filltie
X_01_ FrameData[1] net12 VDD VDD VSS VSS gf180mcu_fd_sc_mcu7t5v0__buf_2
XFILLER_2_230 VDD VDD VSS VSS gf180mcu_fd_sc_mcu7t5v0__fill_1
XANTENNA__45__I FrameStrobe[13] VDD VDD VSS VSS gf180mcu_fd_sc_mcu7t5v0__antenna
XFILLER_7_58 VDD VDD VSS VSS gf180mcu_fd_sc_mcu7t5v0__fillcap_4
XPHY_EDGE_ROW_0_Right_0 VDD VSS gf180mcu_fd_sc_mcu7t5v0__endcap
XTAP_TAPCELL_ROW_3_48 VDD VSS gf180mcu_fd_sc_mcu7t5v0__filltie
XFILLER_8_119 VDD VDD VSS VSS gf180mcu_fd_sc_mcu7t5v0__fill_2
XFILLER_4_37 VDD VDD VSS VSS gf180mcu_fd_sc_mcu7t5v0__fillcap_64
XFILLER_4_122 VDD VDD VSS VSS gf180mcu_fd_sc_mcu7t5v0__fill_1
XFILLER_4_177 VDD VDD VSS VSS gf180mcu_fd_sc_mcu7t5v0__fillcap_64
XTAP_TAPCELL_ROW_0_38 VDD VSS gf180mcu_fd_sc_mcu7t5v0__filltie
XFILLER_1_147 VDD VDD VSS VSS gf180mcu_fd_sc_mcu7t5v0__fillcap_8
XANTENNA__53__I S1END[2] VDD VDD VSS VSS gf180mcu_fd_sc_mcu7t5v0__antenna
XFILLER_13_254 VDD VDD VSS VSS gf180mcu_fd_sc_mcu7t5v0__fill_1
XTAP_TAPCELL_ROW_9_69 VDD VSS gf180mcu_fd_sc_mcu7t5v0__filltie
XANTENNA__48__I FrameStrobe[16] VDD VDD VSS VSS gf180mcu_fd_sc_mcu7t5v0__antenna
XPHY_EDGE_ROW_3_Left_19 VDD VSS gf180mcu_fd_sc_mcu7t5v0__endcap
X_77_ S4END[10] net84 VDD VDD VSS VSS gf180mcu_fd_sc_mcu7t5v0__buf_2
XTAP_TAPCELL_ROW_6_59 VDD VSS gf180mcu_fd_sc_mcu7t5v0__filltie
X_00_ FrameData[0] net1 VDD VDD VSS VSS gf180mcu_fd_sc_mcu7t5v0__buf_2
XANTENNA__61__I S2MID[2] VDD VDD VSS VSS gf180mcu_fd_sc_mcu7t5v0__antenna
XPHY_EDGE_ROW_6_Left_22 VDD VSS gf180mcu_fd_sc_mcu7t5v0__endcap
XANTENNA__56__I S2MID[7] VDD VDD VSS VSS gf180mcu_fd_sc_mcu7t5v0__antenna
XFILLER_14_2 VDD VDD VSS VSS gf180mcu_fd_sc_mcu7t5v0__fillcap_16
XFILLER_11_160 VDD VDD VSS VSS gf180mcu_fd_sc_mcu7t5v0__fillcap_4
XFILLER_4_101 VDD VDD VSS VSS gf180mcu_fd_sc_mcu7t5v0__fillcap_4
XFILLER_4_167 VDD VDD VSS VSS gf180mcu_fd_sc_mcu7t5v0__fillcap_8
XFILLER_1_104 VDD VDD VSS VSS gf180mcu_fd_sc_mcu7t5v0__fillcap_8
XANTENNA__64__I S2END[7] VDD VDD VSS VSS gf180mcu_fd_sc_mcu7t5v0__antenna
XFILLER_10_214 VDD VDD VSS VSS gf180mcu_fd_sc_mcu7t5v0__fill_2
X_76_ S4END[11] net83 VDD VDD VSS VSS gf180mcu_fd_sc_mcu7t5v0__buf_2
XFILLER_5_240 VDD VDD VSS VSS gf180mcu_fd_sc_mcu7t5v0__fill_1
XANTENNA__59__I S2MID[4] VDD VDD VSS VSS gf180mcu_fd_sc_mcu7t5v0__antenna
X_59_ S2MID[4] net60 VDD VDD VSS VSS gf180mcu_fd_sc_mcu7t5v0__buf_2
XFILLER_15_147 VDD VDD VSS VSS gf180mcu_fd_sc_mcu7t5v0__fill_2
XANTENNA__72__I S4END[15] VDD VDD VSS VSS gf180mcu_fd_sc_mcu7t5v0__antenna
XFILLER_11_172 VDD VDD VSS VSS gf180mcu_fd_sc_mcu7t5v0__fill_2
XFILLER_7_132 VDD VDD VSS VSS gf180mcu_fd_sc_mcu7t5v0__fillcap_4
XFILLER_7_198 VDD VDD VSS VSS gf180mcu_fd_sc_mcu7t5v0__fillcap_8
XANTENNA__67__I S2END[4] VDD VDD VSS VSS gf180mcu_fd_sc_mcu7t5v0__antenna
XFILLER_0_160 VDD VDD VSS VSS gf180mcu_fd_sc_mcu7t5v0__fillcap_4
XANTENNA__80__I S4END[7] VDD VDD VSS VSS gf180mcu_fd_sc_mcu7t5v0__antenna
X_75_ S4END[12] net82 VDD VDD VSS VSS gf180mcu_fd_sc_mcu7t5v0__buf_2
XPHY_EDGE_ROW_14_Right_14 VDD VSS gf180mcu_fd_sc_mcu7t5v0__endcap
XANTENNA__75__I S4END[12] VDD VDD VSS VSS gf180mcu_fd_sc_mcu7t5v0__antenna
XFILLER_2_211 VDD VDD VSS VSS gf180mcu_fd_sc_mcu7t5v0__fillcap_4
XFILLER_2_200 VDD VDD VSS VSS gf180mcu_fd_sc_mcu7t5v0__fill_1
XFILLER_4_2 VDD VDD VSS VSS gf180mcu_fd_sc_mcu7t5v0__fillcap_32
X_58_ S2MID[5] net59 VDD VDD VSS VSS gf180mcu_fd_sc_mcu7t5v0__buf_2
XFILLER_15_104 VDD VDD VSS VSS gf180mcu_fd_sc_mcu7t5v0__fill_1
XTAP_TAPCELL_ROW_7_60 VDD VSS gf180mcu_fd_sc_mcu7t5v0__filltie
XFILLER_12_129 VDD VDD VSS VSS gf180mcu_fd_sc_mcu7t5v0__fill_1
XPHY_EDGE_ROW_4_Right_4 VDD VSS gf180mcu_fd_sc_mcu7t5v0__endcap
XANTENNA__83__I S4END[4] VDD VDD VSS VSS gf180mcu_fd_sc_mcu7t5v0__antenna
XFILLER_4_147 VDD VDD VSS VSS gf180mcu_fd_sc_mcu7t5v0__fill_2
XTAP_TAPCELL_ROW_4_50 VDD VSS gf180mcu_fd_sc_mcu7t5v0__filltie
XANTENNA__78__I S4END[9] VDD VDD VSS VSS gf180mcu_fd_sc_mcu7t5v0__antenna
XFILLER_1_128 VDD VDD VSS VSS gf180mcu_fd_sc_mcu7t5v0__fill_2
XFILLER_9_206 VDD VDD VSS VSS gf180mcu_fd_sc_mcu7t5v0__fillcap_4
XFILLER_5_72 VDD VDD VSS VSS gf180mcu_fd_sc_mcu7t5v0__fillcap_32
XFILLER_10_216 VDD VDD VSS VSS gf180mcu_fd_sc_mcu7t5v0__fill_1
X_74_ S4END[13] net81 VDD VDD VSS VSS gf180mcu_fd_sc_mcu7t5v0__buf_2
XTAP_TAPCELL_ROW_1_40 VDD VSS gf180mcu_fd_sc_mcu7t5v0__filltie
XANTENNA__86__I S4END[1] VDD VDD VSS VSS gf180mcu_fd_sc_mcu7t5v0__antenna
X_57_ S2MID[6] net58 VDD VDD VSS VSS gf180mcu_fd_sc_mcu7t5v0__buf_2
XFILLER_15_127 VDD VDD VSS VSS gf180mcu_fd_sc_mcu7t5v0__fill_1
XTAP_TAPCELL_ROW_7_61 VDD VSS gf180mcu_fd_sc_mcu7t5v0__filltie
XFILLER_11_174 VDD VDD VSS VSS gf180mcu_fd_sc_mcu7t5v0__fill_1
XFILLER_8_83 VDD VDD VSS VSS gf180mcu_fd_sc_mcu7t5v0__fill_2
XFILLER_4_115 VDD VDD VSS VSS gf180mcu_fd_sc_mcu7t5v0__fill_2
XTAP_TAPCELL_ROW_4_51 VDD VSS gf180mcu_fd_sc_mcu7t5v0__filltie
XFILLER_12_2 VDD VDD VSS VSS gf180mcu_fd_sc_mcu7t5v0__fillcap_16
XFILLER_0_195 VDD VDD VSS VSS gf180mcu_fd_sc_mcu7t5v0__fill_1
X_73_ S4END[14] net80 VDD VDD VSS VSS gf180mcu_fd_sc_mcu7t5v0__buf_2
XTAP_TAPCELL_ROW_1_41 VDD VSS gf180mcu_fd_sc_mcu7t5v0__filltie
XFILLER_10_18 VDD VDD VSS VSS gf180mcu_fd_sc_mcu7t5v0__fillcap_8
X_56_ S2MID[7] net57 VDD VDD VSS VSS gf180mcu_fd_sc_mcu7t5v0__buf_2
XFILLER_11_72 VDD VDD VSS VSS gf180mcu_fd_sc_mcu7t5v0__fill_2
X_39_ FrameStrobe[7] net50 VDD VDD VSS VSS gf180mcu_fd_sc_mcu7t5v0__buf_2
XTAP_TAPCELL_ROW_7_62 VDD VSS gf180mcu_fd_sc_mcu7t5v0__filltie
XPHY_EDGE_ROW_10_Left_26 VDD VSS gf180mcu_fd_sc_mcu7t5v0__endcap
XFILLER_11_164 VDD VDD VSS VSS gf180mcu_fd_sc_mcu7t5v0__fill_2
XFILLER_11_142 VDD VDD VSS VSS gf180mcu_fd_sc_mcu7t5v0__fillcap_16
XFILLER_11_131 VDD VDD VSS VSS gf180mcu_fd_sc_mcu7t5v0__fillcap_4
XTAP_TAPCELL_ROW_4_52 VDD VSS gf180mcu_fd_sc_mcu7t5v0__filltie
X_72_ S4END[15] net73 VDD VDD VSS VSS gf180mcu_fd_sc_mcu7t5v0__buf_2
XPHY_EDGE_ROW_10_Right_10 VDD VSS gf180mcu_fd_sc_mcu7t5v0__endcap
X_55_ S1END[0] net56 VDD VDD VSS VSS gf180mcu_fd_sc_mcu7t5v0__buf_2
XFILLER_2_2 VDD VDD VSS VSS gf180mcu_fd_sc_mcu7t5v0__fillcap_32
X_38_ FrameStrobe[6] net49 VDD VDD VSS VSS gf180mcu_fd_sc_mcu7t5v0__buf_2
XFILLER_7_114 VDD VDD VSS VSS gf180mcu_fd_sc_mcu7t5v0__fillcap_4
XFILLER_7_136 VDD VDD VSS VSS gf180mcu_fd_sc_mcu7t5v0__fill_2
XFILLER_8_41 VDD VDD VSS VSS gf180mcu_fd_sc_mcu7t5v0__fill_1
XFILLER_8_52 VDD VDD VSS VSS gf180mcu_fd_sc_mcu7t5v0__fill_2
XFILLER_4_117 VDD VDD VSS VSS gf180mcu_fd_sc_mcu7t5v0__fill_1
XPHY_EDGE_ROW_8_Right_8 VDD VSS gf180mcu_fd_sc_mcu7t5v0__endcap
XFILLER_0_164 VDD VDD VSS VSS gf180mcu_fd_sc_mcu7t5v0__fill_2
XTAP_TAPCELL_ROW_14_84 VDD VSS gf180mcu_fd_sc_mcu7t5v0__filltie
XFILLER_5_212 VDD VDD VSS VSS gf180mcu_fd_sc_mcu7t5v0__fillcap_16
X_71_ S2END[0] net72 VDD VDD VSS VSS gf180mcu_fd_sc_mcu7t5v0__buf_2
XFILLER_2_215 VDD VDD VSS VSS gf180mcu_fd_sc_mcu7t5v0__fill_2
X_54_ S1END[1] net55 VDD VDD VSS VSS gf180mcu_fd_sc_mcu7t5v0__buf_2
XTAP_TAPCELL_ROW_11_74 VDD VSS gf180mcu_fd_sc_mcu7t5v0__filltie
XFILLER_11_74 VDD VDD VSS VSS gf180mcu_fd_sc_mcu7t5v0__fill_1
X_37_ FrameStrobe[5] net48 VDD VDD VSS VSS gf180mcu_fd_sc_mcu7t5v0__buf_2
XFILLER_6_170 VDD VDD VSS VSS gf180mcu_fd_sc_mcu7t5v0__fillcap_4