*SPEF "ieee 1481-1999"
*DESIGN "W_IO4"
*DATE "11:06:01 Friday November 28, 2025"
*VENDOR "The OpenROAD Project"
*PROGRAM "OpenROAD"
*VERSION "341650e72dad0dc8571822ff8c5d9c5e365327f7"
*DESIGN_FLOW "NAME_SCOPE LOCAL" "PIN_CAP NONE"
*DIVIDER /
*DELIMITER :
*BUS_DELIMITER []
*T_UNIT 1 NS
*C_UNIT 1 PF
*R_UNIT 1 OHM
*L_UNIT 1 HENRY

*NAME_MAP
*1 A_I_top
*2 A_O_top
*3 A_T_top
*4 A_config_C_bit0
*5 A_config_C_bit1
*6 A_config_C_bit2
*7 A_config_C_bit3
*8 B_I_top
*9 B_O_top
*10 B_T_top
*11 B_config_C_bit0
*12 B_config_C_bit1
*13 B_config_C_bit2
*14 B_config_C_bit3
*15 C_I_top
*16 C_O_top
*17 C_T_top
*18 C_config_C_bit0
*19 C_config_C_bit1
*20 C_config_C_bit2
*21 C_config_C_bit3
*22 D_I_top
*23 D_O_top
*24 D_T_top
*25 D_config_C_bit0
*26 D_config_C_bit1
*27 D_config_C_bit2
*28 D_config_C_bit3
*29 E1BEG[0]
*30 E1BEG[1]
*31 E1BEG[2]
*32 E1BEG[3]
*33 E2BEG[0]
*34 E2BEG[1]
*35 E2BEG[2]
*36 E2BEG[3]
*37 E2BEG[4]
*38 E2BEG[5]
*39 E2BEG[6]
*40 E2BEG[7]
*41 E2BEGb[0]
*42 E2BEGb[1]
*43 E2BEGb[2]
*44 E2BEGb[3]
*45 E2BEGb[4]
*46 E2BEGb[5]
*47 E2BEGb[6]
*48 E2BEGb[7]
*49 E6BEG[0]
*50 E6BEG[10]
*51 E6BEG[11]
*52 E6BEG[1]
*53 E6BEG[2]
*54 E6BEG[3]
*55 E6BEG[4]
*56 E6BEG[5]
*57 E6BEG[6]
*58 E6BEG[7]
*59 E6BEG[8]
*60 E6BEG[9]
*61 EE4BEG[0]
*62 EE4BEG[10]
*63 EE4BEG[11]
*64 EE4BEG[12]
*65 EE4BEG[13]
*66 EE4BEG[14]
*67 EE4BEG[15]
*68 EE4BEG[1]
*69 EE4BEG[2]
*70 EE4BEG[3]
*71 EE4BEG[4]
*72 EE4BEG[5]
*73 EE4BEG[6]
*74 EE4BEG[7]
*75 EE4BEG[8]
*76 EE4BEG[9]
*77 FrameData[0]
*78 FrameData[10]
*79 FrameData[11]
*80 FrameData[12]
*81 FrameData[13]
*82 FrameData[14]
*83 FrameData[15]
*84 FrameData[16]
*85 FrameData[17]
*86 FrameData[18]
*87 FrameData[19]
*88 FrameData[1]
*89 FrameData[20]
*90 FrameData[21]
*91 FrameData[22]
*92 FrameData[23]
*93 FrameData[24]
*94 FrameData[25]
*95 FrameData[26]
*96 FrameData[27]
*97 FrameData[28]
*98 FrameData[29]
*99 FrameData[2]
*100 FrameData[30]
*101 FrameData[31]
*102 FrameData[3]
*103 FrameData[4]
*104 FrameData[5]
*105 FrameData[6]
*106 FrameData[7]
*107 FrameData[8]
*108 FrameData[9]
*109 FrameData_O[0]
*110 FrameData_O[10]
*111 FrameData_O[11]
*112 FrameData_O[12]
*113 FrameData_O[13]
*114 FrameData_O[14]
*115 FrameData_O[15]
*116 FrameData_O[16]
*117 FrameData_O[17]
*118 FrameData_O[18]
*119 FrameData_O[19]
*120 FrameData_O[1]
*121 FrameData_O[20]
*122 FrameData_O[21]
*123 FrameData_O[22]
*124 FrameData_O[23]
*125 FrameData_O[24]
*126 FrameData_O[25]
*127 FrameData_O[26]
*128 FrameData_O[27]
*129 FrameData_O[28]
*130 FrameData_O[29]
*131 FrameData_O[2]
*132 FrameData_O[30]
*133 FrameData_O[31]
*134 FrameData_O[3]
*135 FrameData_O[4]
*136 FrameData_O[5]
*137 FrameData_O[6]
*138 FrameData_O[7]
*139 FrameData_O[8]
*140 FrameData_O[9]
*141 FrameStrobe[0]
*142 FrameStrobe[10]
*143 FrameStrobe[11]
*144 FrameStrobe[12]
*145 FrameStrobe[13]
*146 FrameStrobe[14]
*147 FrameStrobe[15]
*148 FrameStrobe[16]
*149 FrameStrobe[17]
*150 FrameStrobe[18]
*151 FrameStrobe[19]
*152 FrameStrobe[1]
*153 FrameStrobe[2]
*154 FrameStrobe[3]
*155 FrameStrobe[4]
*156 FrameStrobe[5]
*157 FrameStrobe[6]
*158 FrameStrobe[7]
*159 FrameStrobe[8]
*160 FrameStrobe[9]
*161 FrameStrobe_O[0]
*162 FrameStrobe_O[10]
*163 FrameStrobe_O[11]
*164 FrameStrobe_O[12]
*165 FrameStrobe_O[13]
*166 FrameStrobe_O[14]
*167 FrameStrobe_O[15]
*168 FrameStrobe_O[16]
*169 FrameStrobe_O[17]
*170 FrameStrobe_O[18]
*171 FrameStrobe_O[19]
*172 FrameStrobe_O[1]
*173 FrameStrobe_O[2]
*174 FrameStrobe_O[3]
*175 FrameStrobe_O[4]
*176 FrameStrobe_O[5]
*177 FrameStrobe_O[6]
*178 FrameStrobe_O[7]
*179 FrameStrobe_O[8]
*180 FrameStrobe_O[9]
*181 UserCLK
*182 UserCLKo
*185 W1END[0]
*186 W1END[1]
*187 W1END[2]
*188 W1END[3]
*189 W2END[0]
*190 W2END[1]
*191 W2END[2]
*192 W2END[3]
*193 W2END[4]
*194 W2END[5]
*195 W2END[6]
*196 W2END[7]
*197 W2MID[0]
*198 W2MID[1]
*199 W2MID[2]
*200 W2MID[3]
*201 W2MID[4]
*202 W2MID[5]
*203 W2MID[6]
*204 W2MID[7]
*205 W6END[0]
*206 W6END[10]
*207 W6END[11]
*208 W6END[1]
*209 W6END[2]
*210 W6END[3]
*211 W6END[4]
*212 W6END[5]
*213 W6END[6]
*214 W6END[7]
*215 W6END[8]
*216 W6END[9]
*217 WW4END[0]
*218 WW4END[10]
*219 WW4END[11]
*220 WW4END[12]
*221 WW4END[13]
*222 WW4END[14]
*223 WW4END[15]
*224 WW4END[1]
*225 WW4END[2]
*226 WW4END[3]
*227 WW4END[4]
*228 WW4END[5]
*229 WW4END[6]
*230 WW4END[7]
*231 WW4END[8]
*232 WW4END[9]
*233 Inst_A_IO_1_bidirectional_frame_config_pass\.Q
*234 Inst_B_IO_1_bidirectional_frame_config_pass\.Q
*235 Inst_C_IO_1_bidirectional_frame_config_pass\.Q
*236 Inst_D_IO_1_bidirectional_frame_config_pass\.Q
*237 Inst_W_IO4_ConfigMem\.Inst_frame0_bit0\.Q
*238 Inst_W_IO4_ConfigMem\.Inst_frame0_bit1\.Q
*239 Inst_W_IO4_ConfigMem\.Inst_frame0_bit10\.Q
*240 Inst_W_IO4_ConfigMem\.Inst_frame0_bit11\.Q
*241 Inst_W_IO4_ConfigMem\.Inst_frame0_bit12\.Q
*242 Inst_W_IO4_ConfigMem\.Inst_frame0_bit13\.Q
*243 Inst_W_IO4_ConfigMem\.Inst_frame0_bit14\.Q
*244 Inst_W_IO4_ConfigMem\.Inst_frame0_bit15\.Q
*245 Inst_W_IO4_ConfigMem\.Inst_frame0_bit16\.Q
*246 Inst_W_IO4_ConfigMem\.Inst_frame0_bit17\.Q
*247 Inst_W_IO4_ConfigMem\.Inst_frame0_bit18\.Q
*248 Inst_W_IO4_ConfigMem\.Inst_frame0_bit19\.Q
*249 Inst_W_IO4_ConfigMem\.Inst_frame0_bit2\.Q
*250 Inst_W_IO4_ConfigMem\.Inst_frame0_bit20\.Q
*251 Inst_W_IO4_ConfigMem\.Inst_frame0_bit21\.Q
*252 Inst_W_IO4_ConfigMem\.Inst_frame0_bit22\.Q
*253 Inst_W_IO4_ConfigMem\.Inst_frame0_bit23\.Q
*254 Inst_W_IO4_ConfigMem\.Inst_frame0_bit24\.Q
*255 Inst_W_IO4_ConfigMem\.Inst_frame0_bit25\.Q
*256 Inst_W_IO4_ConfigMem\.Inst_frame0_bit26\.Q
*257 Inst_W_IO4_ConfigMem\.Inst_frame0_bit27\.Q
*258 Inst_W_IO4_ConfigMem\.Inst_frame0_bit28\.Q
*259 Inst_W_IO4_ConfigMem\.Inst_frame0_bit29\.Q
*260 Inst_W_IO4_ConfigMem\.Inst_frame0_bit3\.Q
*261 Inst_W_IO4_ConfigMem\.Inst_frame0_bit30\.Q
*262 Inst_W_IO4_ConfigMem\.Inst_frame0_bit31\.Q
*263 Inst_W_IO4_ConfigMem\.Inst_frame0_bit4\.Q
*264 Inst_W_IO4_ConfigMem\.Inst_frame0_bit5\.Q
*265 Inst_W_IO4_ConfigMem\.Inst_frame0_bit6\.Q
*266 Inst_W_IO4_ConfigMem\.Inst_frame0_bit7\.Q
*267 Inst_W_IO4_ConfigMem\.Inst_frame0_bit8\.Q
*268 Inst_W_IO4_ConfigMem\.Inst_frame0_bit9\.Q
*269 Inst_W_IO4_ConfigMem\.Inst_frame1_bit0\.Q
*270 Inst_W_IO4_ConfigMem\.Inst_frame1_bit1\.Q
*271 Inst_W_IO4_ConfigMem\.Inst_frame1_bit10\.Q
*272 Inst_W_IO4_ConfigMem\.Inst_frame1_bit11\.Q
*273 Inst_W_IO4_ConfigMem\.Inst_frame1_bit12\.Q
*274 Inst_W_IO4_ConfigMem\.Inst_frame1_bit13\.Q
*275 Inst_W_IO4_ConfigMem\.Inst_frame1_bit14\.Q
*276 Inst_W_IO4_ConfigMem\.Inst_frame1_bit15\.Q
*277 Inst_W_IO4_ConfigMem\.Inst_frame1_bit16\.Q
*278 Inst_W_IO4_ConfigMem\.Inst_frame1_bit17\.Q
*279 Inst_W_IO4_ConfigMem\.Inst_frame1_bit18\.Q
*280 Inst_W_IO4_ConfigMem\.Inst_frame1_bit19\.Q
*281 Inst_W_IO4_ConfigMem\.Inst_frame1_bit2\.Q
*282 Inst_W_IO4_ConfigMem\.Inst_frame1_bit20\.Q
*283 Inst_W_IO4_ConfigMem\.Inst_frame1_bit21\.Q
*284 Inst_W_IO4_ConfigMem\.Inst_frame1_bit22\.Q
*285 Inst_W_IO4_ConfigMem\.Inst_frame1_bit23\.Q
*286 Inst_W_IO4_ConfigMem\.Inst_frame1_bit24\.Q
*287 Inst_W_IO4_ConfigMem\.Inst_frame1_bit25\.Q
*288 Inst_W_IO4_ConfigMem\.Inst_frame1_bit26\.Q
*289 Inst_W_IO4_ConfigMem\.Inst_frame1_bit27\.Q
*290 Inst_W_IO4_ConfigMem\.Inst_frame1_bit28\.Q
*291 Inst_W_IO4_ConfigMem\.Inst_frame1_bit29\.Q
*292 Inst_W_IO4_ConfigMem\.Inst_frame1_bit3\.Q
*293 Inst_W_IO4_ConfigMem\.Inst_frame1_bit30\.Q
*294 Inst_W_IO4_ConfigMem\.Inst_frame1_bit31\.Q
*295 Inst_W_IO4_ConfigMem\.Inst_frame1_bit4\.Q
*296 Inst_W_IO4_ConfigMem\.Inst_frame1_bit5\.Q
*297 Inst_W_IO4_ConfigMem\.Inst_frame1_bit6\.Q
*298 Inst_W_IO4_ConfigMem\.Inst_frame1_bit7\.Q
*299 Inst_W_IO4_ConfigMem\.Inst_frame1_bit8\.Q
*300 Inst_W_IO4_ConfigMem\.Inst_frame1_bit9\.Q
*301 Inst_W_IO4_ConfigMem\.Inst_frame2_bit0\.Q
*302 Inst_W_IO4_ConfigMem\.Inst_frame2_bit1\.Q
*303 Inst_W_IO4_ConfigMem\.Inst_frame2_bit10\.Q
*304 Inst_W_IO4_ConfigMem\.Inst_frame2_bit11\.Q
*305 Inst_W_IO4_ConfigMem\.Inst_frame2_bit12\.Q
*306 Inst_W_IO4_ConfigMem\.Inst_frame2_bit13\.Q
*307 Inst_W_IO4_ConfigMem\.Inst_frame2_bit14\.Q
*308 Inst_W_IO4_ConfigMem\.Inst_frame2_bit15\.Q
*309 Inst_W_IO4_ConfigMem\.Inst_frame2_bit16\.Q
*310 Inst_W_IO4_ConfigMem\.Inst_frame2_bit17\.Q
*311 Inst_W_IO4_ConfigMem\.Inst_frame2_bit18\.Q
*312 Inst_W_IO4_ConfigMem\.Inst_frame2_bit19\.Q
*313 Inst_W_IO4_ConfigMem\.Inst_frame2_bit2\.Q
*314 Inst_W_IO4_ConfigMem\.Inst_frame2_bit20\.Q
*315 Inst_W_IO4_ConfigMem\.Inst_frame2_bit21\.Q
*316 Inst_W_IO4_ConfigMem\.Inst_frame2_bit22\.Q
*317 Inst_W_IO4_ConfigMem\.Inst_frame2_bit23\.Q
*318 Inst_W_IO4_ConfigMem\.Inst_frame2_bit24\.Q
*319 Inst_W_IO4_ConfigMem\.Inst_frame2_bit25\.Q
*320 Inst_W_IO4_ConfigMem\.Inst_frame2_bit26\.Q
*321 Inst_W_IO4_ConfigMem\.Inst_frame2_bit27\.Q
*322 Inst_W_IO4_ConfigMem\.Inst_frame2_bit28\.Q
*323 Inst_W_IO4_ConfigMem\.Inst_frame2_bit29\.Q
*324 Inst_W_IO4_ConfigMem\.Inst_frame2_bit3\.Q
*325 Inst_W_IO4_ConfigMem\.Inst_frame2_bit30\.Q
*326 Inst_W_IO4_ConfigMem\.Inst_frame2_bit31\.Q
*327 Inst_W_IO4_ConfigMem\.Inst_frame2_bit4\.Q
*328 Inst_W_IO4_ConfigMem\.Inst_frame2_bit5\.Q
*329 Inst_W_IO4_ConfigMem\.Inst_frame2_bit6\.Q
*330 Inst_W_IO4_ConfigMem\.Inst_frame2_bit7\.Q
*331 Inst_W_IO4_ConfigMem\.Inst_frame2_bit8\.Q
*332 Inst_W_IO4_ConfigMem\.Inst_frame2_bit9\.Q
*333 Inst_W_IO4_ConfigMem\.Inst_frame3_bit10\.Q
*334 Inst_W_IO4_ConfigMem\.Inst_frame3_bit11\.Q
*335 Inst_W_IO4_ConfigMem\.Inst_frame3_bit12\.Q
*336 Inst_W_IO4_ConfigMem\.Inst_frame3_bit13\.Q
*337 Inst_W_IO4_ConfigMem\.Inst_frame3_bit14\.Q
*338 Inst_W_IO4_ConfigMem\.Inst_frame3_bit15\.Q
*339 Inst_W_IO4_ConfigMem\.Inst_frame3_bit16\.Q
*340 Inst_W_IO4_ConfigMem\.Inst_frame3_bit17\.Q
*341 Inst_W_IO4_ConfigMem\.Inst_frame3_bit18\.Q
*342 Inst_W_IO4_ConfigMem\.Inst_frame3_bit19\.Q
*343 Inst_W_IO4_ConfigMem\.Inst_frame3_bit20\.Q
*344 Inst_W_IO4_ConfigMem\.Inst_frame3_bit21\.Q
*345 Inst_W_IO4_ConfigMem\.Inst_frame3_bit22\.Q
*346 Inst_W_IO4_ConfigMem\.Inst_frame3_bit23\.Q
*347 Inst_W_IO4_ConfigMem\.Inst_frame3_bit24\.Q
*348 Inst_W_IO4_ConfigMem\.Inst_frame3_bit25\.Q
*349 Inst_W_IO4_ConfigMem\.Inst_frame3_bit26\.Q
*350 Inst_W_IO4_ConfigMem\.Inst_frame3_bit27\.Q
*351 Inst_W_IO4_ConfigMem\.Inst_frame3_bit28\.Q
*352 Inst_W_IO4_ConfigMem\.Inst_frame3_bit29\.Q
*353 Inst_W_IO4_ConfigMem\.Inst_frame3_bit30\.Q
*354 Inst_W_IO4_ConfigMem\.Inst_frame3_bit31\.Q
*355 Inst_W_IO4_ConfigMem\.Inst_frame3_bit4\.Q
*356 Inst_W_IO4_ConfigMem\.Inst_frame3_bit5\.Q
*357 Inst_W_IO4_ConfigMem\.Inst_frame3_bit6\.Q
*358 Inst_W_IO4_ConfigMem\.Inst_frame3_bit7\.Q
*359 Inst_W_IO4_ConfigMem\.Inst_frame3_bit8\.Q
*360 Inst_W_IO4_ConfigMem\.Inst_frame3_bit9\.Q
*361 Inst_W_IO4_switch_matrix\.E1BEG0
*362 Inst_W_IO4_switch_matrix\.E1BEG1
*363 Inst_W_IO4_switch_matrix\.E1BEG2
*364 Inst_W_IO4_switch_matrix\.E1BEG3
*365 Inst_W_IO4_switch_matrix\.E2BEG0
*366 Inst_W_IO4_switch_matrix\.E2BEG1
*367 Inst_W_IO4_switch_matrix\.E2BEG2
*368 Inst_W_IO4_switch_matrix\.E2BEG3
*369 Inst_W_IO4_switch_matrix\.E2BEG4
*370 Inst_W_IO4_switch_matrix\.E2BEG5
*371 Inst_W_IO4_switch_matrix\.E2BEG6
*372 Inst_W_IO4_switch_matrix\.E2BEG7
*373 Inst_W_IO4_switch_matrix\.E2BEGb0
*374 Inst_W_IO4_switch_matrix\.E2BEGb1
*375 Inst_W_IO4_switch_matrix\.E2BEGb2
*376 Inst_W_IO4_switch_matrix\.E2BEGb3
*377 Inst_W_IO4_switch_matrix\.E2BEGb4
*378 Inst_W_IO4_switch_matrix\.E2BEGb5
*379 Inst_W_IO4_switch_matrix\.E2BEGb6
*380 Inst_W_IO4_switch_matrix\.E2BEGb7
*381 Inst_W_IO4_switch_matrix\.E6BEG0
*382 Inst_W_IO4_switch_matrix\.E6BEG1
*383 Inst_W_IO4_switch_matrix\.E6BEG10
*384 Inst_W_IO4_switch_matrix\.E6BEG11
*385 Inst_W_IO4_switch_matrix\.E6BEG2
*386 Inst_W_IO4_switch_matrix\.E6BEG3
*387 Inst_W_IO4_switch_matrix\.E6BEG4
*388 Inst_W_IO4_switch_matrix\.E6BEG5
*389 Inst_W_IO4_switch_matrix\.E6BEG6
*390 Inst_W_IO4_switch_matrix\.E6BEG7
*391 Inst_W_IO4_switch_matrix\.E6BEG8
*392 Inst_W_IO4_switch_matrix\.E6BEG9
*393 Inst_W_IO4_switch_matrix\.EE4BEG0
*394 Inst_W_IO4_switch_matrix\.EE4BEG1
*395 Inst_W_IO4_switch_matrix\.EE4BEG10
*396 Inst_W_IO4_switch_matrix\.EE4BEG11
*397 Inst_W_IO4_switch_matrix\.EE4BEG12
*398 Inst_W_IO4_switch_matrix\.EE4BEG13
*399 Inst_W_IO4_switch_matrix\.EE4BEG14
*400 Inst_W_IO4_switch_matrix\.EE4BEG15
*401 Inst_W_IO4_switch_matrix\.EE4BEG2
*402 Inst_W_IO4_switch_matrix\.EE4BEG3
*403 Inst_W_IO4_switch_matrix\.EE4BEG4
*404 Inst_W_IO4_switch_matrix\.EE4BEG5
*405 Inst_W_IO4_switch_matrix\.EE4BEG6
*406 Inst_W_IO4_switch_matrix\.EE4BEG7
*407 Inst_W_IO4_switch_matrix\.EE4BEG8
*408 Inst_W_IO4_switch_matrix\.EE4BEG9
*409 UserCLK_regs
*410 _000_
*411 _001_
*412 _002_
*413 _003_
*414 _004_
*415 _005_
*416 _006_
*417 _007_
*418 _008_
*419 _009_
*420 _010_
*421 _011_
*422 _012_
*423 _013_
*424 _014_
*425 _015_
*426 _016_
*427 _017_
*428 _018_
*429 _019_
*430 _020_
*431 _021_
*432 _022_
*433 _023_
*434 _024_
*435 _025_
*436 _026_
*437 _027_
*438 _028_
*439 _029_
*440 _030_
*441 _031_
*442 _032_
*443 _033_
*444 _034_
*445 _035_
*446 _036_
*447 _037_
*448 _038_
*449 _039_
*450 _040_
*451 _041_
*452 _042_
*453 _043_
*454 _044_
*455 _045_
*456 _046_
*457 _047_
*458 _048_
*459 _049_
*460 _050_
*461 _051_
*462 _052_
*463 _053_
*464 _054_
*465 _055_
*466 _056_
*467 _057_
*468 _058_
*469 _059_
*470 _060_
*471 _061_
*472 _062_
*473 _063_
*474 _064_
*475 _065_
*476 _066_
*477 _067_
*478 _068_
*479 _069_
*480 _070_
*481 _071_
*482 _072_
*483 _073_
*484 _074_
*485 _075_
*486 _076_
*487 _077_
*488 clknet_0_UserCLK
*489 clknet_0_UserCLK_regs
*490 clknet_1_0__leaf_UserCLK
*491 clknet_1_0__leaf_UserCLK_regs
*492 clknet_1_1__leaf_UserCLK_regs
*493 net1
*494 net10
*495 net100
*496 net101
*497 net102
*498 net103
*499 net104
*500 net105
*501 net106
*502 net107
*503 net108
*504 net109
*505 net11
*506 net110
*507 net111
*508 net112
*509 net113
*510 net114
*511 net115
*512 net116
*513 net117
*514 net118
*515 net119
*516 net12
*517 net120
*518 net121
*519 net122
*520 net123
*521 net124
*522 net125
*523 net126
*524 net127
*525 net128
*526 net129
*527 net13
*528 net130
*529 net131
*530 net132
*531 net133
*532 net134
*533 net135
*534 net136
*535 net137
*536 net138
*537 net139
*538 net14
*539 net140
*540 net141
*541 net142
*542 net143
*543 net144
*544 net145
*545 net146
*546 net147
*547 net148
*548 net149
*549 net15
*550 net150
*551 net151
*552 net152
*553 net153
*554 net154
*555 net155
*556 net156
*557 net157
*558 net158
*559 net159
*560 net16
*561 net160
*562 net161
*563 net162
*564 net163
*565 net164
*566 net165
*567 net166
*568 net167
*569 net168
*570 net169
*571 net17
*572 net170
*573 net171
*574 net172
*575 net173
*576 net174
*577 net175
*578 net176
*579 net177
*580 net178
*581 net179
*582 net18
*583 net180
*584 net181
*585 net182
*586 net183
*587 net184
*588 net185
*589 net186
*590 net187
*591 net188
*592 net189
*593 net19
*594 net190
*595 net191
*596 net192
*597 net193
*598 net194
*599 net195
*600 net196
*601 net197
*602 net198
*603 net199
*604 net2
*605 net20
*606 net200
*607 net201
*608 net202
*609 net203
*610 net204
*611 net205
*612 net206
*613 net207
*614 net208
*615 net209
*616 net21
*617 net210
*618 net211
*619 net212
*620 net213
*621 net214
*622 net215
*623 net216
*624 net217
*625 net218
*626 net219
*627 net22
*628 net220
*629 net221
*630 net222
*631 net223
*632 net224
*633 net225
*634 net226
*635 net227
*636 net228
*637 net229
*638 net23
*639 net230
*640 net24
*641 net25
*642 net26
*643 net27
*644 net28
*645 net29
*646 net3
*647 net30
*648 net31
*649 net32
*650 net33
*651 net34
*652 net35
*653 net36
*654 net37
*655 net38
*656 net39
*657 net4
*658 net40
*659 net41
*660 net42
*661 net43
*662 net44
*663 net45
*664 net46
*665 net47
*666 net48
*667 net49
*668 net5
*669 net50
*670 net51
*671 net52
*672 net53
*673 net54
*674 net55
*675 net56
*676 net57
*677 net58
*678 net59
*679 net6
*680 net60
*681 net61
*682 net62
*683 net63
*684 net64
*685 net65
*686 net66
*687 net67
*688 net68
*689 net69
*690 net7
*691 net70
*692 net71
*693 net72
*694 net73
*695 net74
*696 net75
*697 net76
*698 net77
*699 net78
*700 net79
*701 net8
*702 net80
*703 net81
*704 net82
*705 net83
*706 net84
*707 net85
*708 net86
*709 net87
*710 net88
*711 net89
*712 net9
*713 net90
*714 net91
*715 net92
*716 net93
*717 net94
*718 net95
*719 net96
*720 net97
*721 net98
*722 net99
*723 FILLER_0_104
*724 FILLER_0_138
*725 FILLER_0_172
*726 FILLER_0_2
*727 FILLER_0_206
*728 FILLER_0_240
*729 FILLER_0_36
*730 FILLER_0_52
*731 FILLER_0_70
*732 FILLER_10_121
*733 FILLER_10_123
*734 FILLER_10_164
*735 FILLER_10_172
*736 FILLER_10_174
*737 FILLER_10_177
*738 FILLER_10_209
*739 FILLER_10_217
*740 FILLER_10_30
*741 FILLER_10_34
*742 FILLER_10_53
*743 FILLER_10_83
*744 FILLER_11_124
*745 FILLER_11_150
*746 FILLER_11_152
*747 FILLER_11_185
*748 FILLER_11_201
*749 FILLER_11_209
*750 FILLER_11_212
*751 FILLER_11_216
*752 FILLER_11_30
*753 FILLER_11_34
*754 FILLER_11_55
*755 FILLER_11_66
*756 FILLER_11_72
*757 FILLER_12_119
*758 FILLER_12_121
*759 FILLER_12_177
*760 FILLER_12_2
*761 FILLER_12_209
*762 FILLER_12_29
*763 FILLER_12_33
*764 FILLER_12_6
*765 FILLER_12_69
*766 FILLER_12_8
*767 FILLER_12_86
*768 FILLER_13_123
*769 FILLER_13_127
*770 FILLER_13_129
*771 FILLER_13_136
*772 FILLER_13_148
*773 FILLER_13_150
*774 FILLER_13_183
*775 FILLER_13_199
*776 FILLER_13_2
*777 FILLER_13_208
*778 FILLER_13_212
*779 FILLER_13_220
*780 FILLER_13_224
*781 FILLER_13_34
*782 FILLER_13_84
*783 FILLER_13_88
*784 FILLER_14_103
*785 FILLER_14_121
*786 FILLER_14_123
*787 FILLER_14_174
*788 FILLER_14_189
*789 FILLER_14_2
*790 FILLER_14_213
*791 FILLER_14_221
*792 FILLER_14_29
*793 FILLER_14_33
*794 FILLER_14_6
*795 FILLER_14_8
*796 FILLER_15_163
*797 FILLER_15_196
*798 FILLER_15_204
*799 FILLER_15_208
*800 FILLER_15_220
*801 FILLER_15_224
*802 FILLER_15_78
*803 FILLER_16_113
*804 FILLER_16_162
*805 FILLER_16_2
*806 FILLER_16_223
*807 FILLER_16_51
*808 FILLER_16_6
*809 FILLER_17_148
*810 FILLER_17_150
*811 FILLER_17_2
*812 FILLER_17_203
*813 FILLER_17_207
*814 FILLER_17_209
*815 FILLER_17_232
*816 FILLER_17_26
*817 FILLER_17_79
*818 FILLER_18_107
*819 FILLER_18_115
*820 FILLER_18_117
*821 FILLER_18_156
*822 FILLER_18_167
*823 FILLER_18_2
*824 FILLER_18_209
*825 FILLER_18_6
*826 FILLER_19_139
*827 FILLER_19_194
*828 FILLER_19_2
*829 FILLER_19_212
*830 FILLER_19_220
*831 FILLER_19_224
*832 FILLER_19_43
*833 FILLER_19_78
*834 FILLER_19_80
*835 FILLER_19_89
*836 FILLER_1_10
*837 FILLER_1_103
*838 FILLER_1_119
*839 FILLER_1_135
*840 FILLER_1_139
*841 FILLER_1_142
*842 FILLER_1_206
*843 FILLER_1_212
*844 FILLER_1_216
*845 FILLER_1_42
*846 FILLER_1_58
*847 FILLER_1_66
*848 FILLER_1_72
*849 FILLER_1_88
*850 FILLER_1_92
*851 FILLER_1_94
*852 FILLER_20_107
*853 FILLER_20_123
*854 FILLER_20_174
*855 FILLER_20_183
*856 FILLER_20_187
*857 FILLER_20_189
*858 FILLER_20_210
*859 FILLER_20_218
*860 FILLER_20_222
*861 FILLER_20_224
*862 FILLER_20_30
*863 FILLER_20_34
*864 FILLER_20_51
*865 FILLER_21_120
*866 FILLER_21_136
*867 FILLER_21_2
*868 FILLER_21_204
*869 FILLER_21_208
*870 FILLER_21_220
*871 FILLER_21_224
*872 FILLER_22_127
*873 FILLER_22_131
*874 FILLER_22_172
*875 FILLER_22_174
*876 FILLER_22_2
*877 FILLER_22_209
*878 FILLER_22_6
*879 FILLER_23_142
*880 FILLER_23_16
*881 FILLER_23_186
*882 FILLER_23_202
*883 FILLER_23_212
*884 FILLER_23_220
*885 FILLER_23_232
*886 FILLER_23_72
*887 FILLER_24_101
*888 FILLER_24_165
*889 FILLER_24_183
*890 FILLER_24_2
*891 FILLER_24_215
*892 FILLER_24_223
*893 FILLER_24_26
*894 FILLER_24_34
*895 FILLER_24_51
*896 FILLER_25_117
*897 FILLER_25_119
*898 FILLER_25_157
*899 FILLER_25_159
*900 FILLER_25_192
*901 FILLER_25_2
*902 FILLER_25_208
*903 FILLER_25_212
*904 FILLER_25_240
*905 FILLER_25_64
*906 FILLER_25_68
*907 FILLER_25_80
*908 FILLER_25_84
*909 FILLER_26_10
*910 FILLER_26_107
*911 FILLER_26_111
*912 FILLER_26_121
*913 FILLER_26_14
*914 FILLER_26_154
*915 FILLER_26_2
*916 FILLER_26_200
*917 FILLER_26_210
*918 FILLER_26_218
*919 FILLER_26_37
*920 FILLER_26_39
*921 FILLER_26_72
*922 FILLER_26_80
*923 FILLER_26_84
*924 FILLER_27_116
*925 FILLER_27_162
*926 FILLER_27_164
*927 FILLER_27_205
*928 FILLER_27_209
*929 FILLER_27_212
*930 FILLER_27_36
*931 FILLER_27_40
*932 FILLER_27_61
*933 FILLER_27_69
*934 FILLER_27_72
*935 FILLER_28_104
*936 FILLER_28_107
*937 FILLER_28_119
*938 FILLER_28_121
*939 FILLER_28_142
*940 FILLER_28_158
*941 FILLER_28_166
*942 FILLER_28_177
*943 FILLER_28_2
*944 FILLER_28_209
*945 FILLER_28_225
*946 FILLER_28_31
*947 FILLER_28_37
*948 FILLER_28_81
*949 FILLER_28_83
*950 FILLER_29_10
*951 FILLER_29_125
*952 FILLER_29_129
*953 FILLER_29_139
*954 FILLER_29_202
*955 FILLER_29_212
*956 FILLER_29_66
*957 FILLER_29_72
*958 FILLER_29_80
*959 FILLER_29_84
*960 FILLER_2_10
*961 FILLER_2_101
*962 FILLER_2_107
*963 FILLER_2_171
*964 FILLER_2_177
*965 FILLER_2_209
*966 FILLER_2_26
*967 FILLER_2_34
*968 FILLER_2_37
*969 FILLER_30_103
*970 FILLER_30_115
*971 FILLER_30_163
*972 FILLER_30_171
*973 FILLER_30_2
*974 FILLER_30_209
*975 FILLER_30_28
*976 FILLER_30_32
*977 FILLER_30_34
*978 FILLER_30_51
*979 FILLER_30_6
*980 FILLER_30_95
*981 FILLER_31_112
*982 FILLER_31_150
*983 FILLER_31_158
*984 FILLER_31_195
*985 FILLER_31_203
*986 FILLER_31_207
*987 FILLER_31_209
*988 FILLER_31_212
*989 FILLER_31_48
*990 FILLER_32_107
*991 FILLER_32_137
*992 FILLER_32_145
*993 FILLER_32_197
*994 FILLER_32_2
*995 FILLER_32_213
*996 FILLER_32_221
*997 FILLER_32_225
*998 FILLER_32_29
*999 FILLER_32_33
*1000 FILLER_32_45
*1001 FILLER_32_47
*1002 FILLER_32_6
*1003 FILLER_32_68
*1004 FILLER_32_72
*1005 FILLER_32_8
*1006 FILLER_33_134
*1007 FILLER_33_138
*1008 FILLER_33_142
*1009 FILLER_33_146
*1010 FILLER_33_180
*1011 FILLER_33_196
*1012 FILLER_33_204
*1013 FILLER_33_208
*1014 FILLER_33_212
*1015 FILLER_33_54
*1016 FILLER_33_92
*1017 FILLER_34_10
*1018 FILLER_34_107
*1019 FILLER_34_111
*1020 FILLER_34_113
*1021 FILLER_34_146
*1022 FILLER_34_150
*1023 FILLER_34_152
*1024 FILLER_34_173
*1025 FILLER_34_185
*1026 FILLER_34_201
*1027 FILLER_34_209
*1028 FILLER_34_32
*1029 FILLER_34_34
*1030 FILLER_34_45
*1031 FILLER_34_49
*1032 FILLER_34_84
*1033 FILLER_35_128
*1034 FILLER_35_130
*1035 FILLER_35_139
*1036 FILLER_35_142
*1037 FILLER_35_198
*1038 FILLER_35_2
*1039 FILLER_35_206
*1040 FILLER_35_212
*1041 FILLER_35_220
*1042 FILLER_35_224
*1043 FILLER_35_226
*1044 FILLER_35_51
*1045 FILLER_35_55
*1046 FILLER_35_6
*1047 FILLER_35_72
*1048 FILLER_35_8
*1049 FILLER_36_10
*1050 FILLER_36_107
*1051 FILLER_36_111
*1052 FILLER_36_14
*1053 FILLER_36_173
*1054 FILLER_36_177
*1055 FILLER_36_209
*1056 FILLER_36_225
*1057 FILLER_36_37
*1058 FILLER_36_61
*1059 FILLER_36_65
*1060 FILLER_36_87
*1061 FILLER_36_95
*1062 FILLER_37_137
*1063 FILLER_37_139
*1064 FILLER_37_142
*1065 FILLER_37_203
*1066 FILLER_37_207
*1067 FILLER_37_209
*1068 FILLER_37_212
*1069 FILLER_37_220
*1070 FILLER_37_224
*1071 FILLER_37_226
*1072 FILLER_37_80
*1073 FILLER_37_84
*1074 FILLER_38_10
*1075 FILLER_38_107
*1076 FILLER_38_14
*1077 FILLER_38_163
*1078 FILLER_38_171
*1079 FILLER_38_209
*1080 FILLER_39_127
*1081 FILLER_39_135
*1082 FILLER_39_139
*1083 FILLER_39_150
*1084 FILLER_39_152
*1085 FILLER_39_2
*1086 FILLER_39_205
*1087 FILLER_39_209
*1088 FILLER_39_212
*1089 FILLER_39_26
*1090 FILLER_39_34
*1091 FILLER_39_72
*1092 FILLER_39_76
*1093 FILLER_39_78
*1094 FILLER_3_136
*1095 FILLER_3_142
*1096 FILLER_3_16
*1097 FILLER_3_206
*1098 FILLER_3_212
*1099 FILLER_3_220
*1100 FILLER_3_224
*1101 FILLER_3_48
*1102 FILLER_3_64
*1103 FILLER_3_68
*1104 FILLER_3_72
*1105 FILLER_40_103
*1106 FILLER_40_107
*1107 FILLER_40_111
*1108 FILLER_40_113
*1109 FILLER_40_172
*1110 FILLER_40_174
*1111 FILLER_40_193
*1112 FILLER_40_225
*1113 FILLER_40_30
*1114 FILLER_40_34
*1115 FILLER_40_51
*1116 FILLER_40_55
*1117 FILLER_40_76
*1118 FILLER_40_78
*1119 FILLER_40_99
*1120 FILLER_41_10
*1121 FILLER_41_12
*1122 FILLER_41_142
*1123 FILLER_41_150
*1124 FILLER_41_154
*1125 FILLER_41_175
*1126 FILLER_41_207
*1127 FILLER_41_209
*1128 FILLER_41_212
*1129 FILLER_41_45
*1130 FILLER_41_49
*1131 FILLER_41_80
*1132 FILLER_42_103
*1133 FILLER_42_143
*1134 FILLER_42_145
*1135 FILLER_42_166
*1136 FILLER_42_177
*1137 FILLER_42_2
*1138 FILLER_42_209
*1139 FILLER_43_142
*1140 FILLER_43_146
*1141 FILLER_43_188
*1142 FILLER_43_204
*1143 FILLER_43_208
*1144 FILLER_43_212
*1145 FILLER_43_72
*1146 FILLER_43_76
*1147 FILLER_43_86
*1148 FILLER_44_157
*1149 FILLER_44_173
*1150 FILLER_44_177
*1151 FILLER_44_209
*1152 FILLER_44_22
*1153 FILLER_44_225
*1154 FILLER_44_26
*1155 FILLER_44_37
*1156 FILLER_45_10
*1157 FILLER_45_178
*1158 FILLER_45_2
*1159 FILLER_45_212
*1160 FILLER_45_67
*1161 FILLER_45_69
*1162 FILLER_45_72
*1163 FILLER_45_80
*1164 FILLER_46_107
*1165 FILLER_46_160
*1166 FILLER_46_168
*1167 FILLER_46_172
*1168 FILLER_46_174
*1169 FILLER_46_177
*1170 FILLER_46_2
*1171 FILLER_46_209
*1172 FILLER_46_37
*1173 FILLER_46_45
*1174 FILLER_46_6
*1175 FILLER_47_127
*1176 FILLER_47_136
*1177 FILLER_47_142
*1178 FILLER_47_2
*1179 FILLER_47_206
*1180 FILLER_47_212
*1181 FILLER_47_23
*1182 FILLER_47_27
*1183 FILLER_47_29
*1184 FILLER_47_72
*1185 FILLER_47_76
*1186 FILLER_48_10
*1187 FILLER_48_147
*1188 FILLER_48_163
*1189 FILLER_48_171
*1190 FILLER_48_177
*1191 FILLER_48_209
*1192 FILLER_48_225
*1193 FILLER_48_31
*1194 FILLER_48_37
*1195 FILLER_48_59
*1196 FILLER_48_63
*1197 FILLER_48_96
*1198 FILLER_49_131
*1199 FILLER_49_139
*1200 FILLER_49_142
*1201 FILLER_49_2
*1202 FILLER_49_206
*1203 FILLER_49_212
*1204 FILLER_49_31
*1205 FILLER_49_47
*1206 FILLER_49_49
*1207 FILLER_49_6
*1208 FILLER_49_66
*1209 FILLER_49_72
*1210 FILLER_4_101
*1211 FILLER_4_107
*1212 FILLER_4_16
*1213 FILLER_4_171
*1214 FILLER_4_177
*1215 FILLER_4_209
*1216 FILLER_4_225
*1217 FILLER_4_32
*1218 FILLER_4_34
*1219 FILLER_4_37
*1220 FILLER_50_115
*1221 FILLER_50_119
*1222 FILLER_50_140
*1223 FILLER_50_172
*1224 FILLER_50_174
*1225 FILLER_50_177
*1226 FILLER_50_209
*1227 FILLER_50_26
*1228 FILLER_50_34
*1229 FILLER_50_37
*1230 FILLER_50_45
*1231 FILLER_50_79
*1232 FILLER_50_83
*1233 FILLER_51_105
*1234 FILLER_51_113
*1235 FILLER_51_135
*1236 FILLER_51_139
*1237 FILLER_51_142
*1238 FILLER_51_18
*1239 FILLER_51_206
*1240 FILLER_51_212
*1241 FILLER_51_50
*1242 FILLER_51_66
*1243 FILLER_51_92
*1244 FILLER_51_96
*1245 FILLER_52_101
*1246 FILLER_52_107
*1247 FILLER_52_115
*1248 FILLER_52_117
*1249 FILLER_52_138
*1250 FILLER_52_170
*1251 FILLER_52_174
*1252 FILLER_52_177
*1253 FILLER_52_18
*1254 FILLER_52_209
*1255 FILLER_52_225
*1256 FILLER_52_34
*1257 FILLER_52_37
*1258 FILLER_53_136
*1259 FILLER_53_142
*1260 FILLER_53_18
*1261 FILLER_53_206
*1262 FILLER_53_212
*1263 FILLER_53_50
*1264 FILLER_53_66
*1265 FILLER_53_72
*1266 FILLER_54_10
*1267 FILLER_54_101
*1268 FILLER_54_107
*1269 FILLER_54_171
*1270 FILLER_54_177
*1271 FILLER_54_209
*1272 FILLER_54_26
*1273 FILLER_54_34
*1274 FILLER_54_37
*1275 FILLER_55_10
*1276 FILLER_55_136
*1277 FILLER_55_142
*1278 FILLER_55_206
*1279 FILLER_55_212
*1280 FILLER_55_42
*1281 FILLER_55_58
*1282 FILLER_55_66
*1283 FILLER_55_72
*1284 FILLER_56_10
*1285 FILLER_56_101
*1286 FILLER_56_107
*1287 FILLER_56_171
*1288 FILLER_56_177
*1289 FILLER_56_209
*1290 FILLER_56_225
*1291 FILLER_56_26
*1292 FILLER_56_34
*1293 FILLER_56_37
*1294 FILLER_57_10
*1295 FILLER_57_136
*1296 FILLER_57_142
*1297 FILLER_57_206
*1298 FILLER_57_212
*1299 FILLER_57_42
*1300 FILLER_57_58
*1301 FILLER_57_66
*1302 FILLER_57_72
*1303 FILLER_58_101
*1304 FILLER_58_107
*1305 FILLER_58_171
*1306 FILLER_58_177
*1307 FILLER_58_18
*1308 FILLER_58_209
*1309 FILLER_58_34
*1310 FILLER_58_37
*1311 FILLER_59_136
*1312 FILLER_59_142
*1313 FILLER_59_16
*1314 FILLER_59_206
*1315 FILLER_59_212
*1316 FILLER_59_48
*1317 FILLER_59_64
*1318 FILLER_59_68
*1319 FILLER_59_72
*1320 FILLER_5_100
*1321 FILLER_5_138
*1322 FILLER_5_142
*1323 FILLER_5_206
*1324 FILLER_5_212
*1325 FILLER_5_220
*1326 FILLER_5_224
*1327 FILLER_5_226
*1328 FILLER_5_32
*1329 FILLER_5_48
*1330 FILLER_5_56
*1331 FILLER_5_60
*1332 FILLER_5_72
*1333 FILLER_5_88
*1334 FILLER_5_96
*1335 FILLER_60_10
*1336 FILLER_60_101
*1337 FILLER_60_107
*1338 FILLER_60_171
*1339 FILLER_60_177
*1340 FILLER_60_209
*1341 FILLER_60_225
*1342 FILLER_60_26
*1343 FILLER_60_34
*1344 FILLER_60_37
*1345 FILLER_61_10
*1346 FILLER_61_136
*1347 FILLER_61_142
*1348 FILLER_61_206
*1349 FILLER_61_212
*1350 FILLER_61_42
*1351 FILLER_61_58
*1352 FILLER_61_66
*1353 FILLER_61_72
*1354 FILLER_62_101
*1355 FILLER_62_107
*1356 FILLER_62_171
*1357 FILLER_62_177
*1358 FILLER_62_2
*1359 FILLER_62_209
*1360 FILLER_62_34
*1361 FILLER_62_37
*1362 FILLER_63_10
*1363 FILLER_63_136
*1364 FILLER_63_142
*1365 FILLER_63_174
*1366 FILLER_63_190
*1367 FILLER_63_198
*1368 FILLER_63_212
*1369 FILLER_63_42
*1370 FILLER_63_58
*1371 FILLER_63_66
*1372 FILLER_63_72
*1373 FILLER_64_10
*1374 FILLER_64_101
*1375 FILLER_64_107
*1376 FILLER_64_171
*1377 FILLER_64_177
*1378 FILLER_64_209
*1379 FILLER_64_26
*1380 FILLER_64_34
*1381 FILLER_64_37
*1382 FILLER_65_10
*1383 FILLER_65_136
*1384 FILLER_65_142
*1385 FILLER_65_174
*1386 FILLER_65_182
*1387 FILLER_65_192
*1388 FILLER_65_212
*1389 FILLER_65_42
*1390 FILLER_65_58
*1391 FILLER_65_66
*1392 FILLER_65_72
*1393 FILLER_66_10
*1394 FILLER_66_101
*1395 FILLER_66_107
*1396 FILLER_66_171
*1397 FILLER_66_177
*1398 FILLER_66_193
*1399 FILLER_66_197
*1400 FILLER_66_26
*1401 FILLER_66_34
*1402 FILLER_66_37
*1403 FILLER_67_10
*1404 FILLER_67_136
*1405 FILLER_67_142
*1406 FILLER_67_174
*1407 FILLER_67_182
*1408 FILLER_67_186
*1409 FILLER_67_212
*1410 FILLER_67_42
*1411 FILLER_67_58
*1412 FILLER_67_66
*1413 FILLER_67_72
*1414 FILLER_68_10
*1415 FILLER_68_101
*1416 FILLER_68_107
*1417 FILLER_68_139
*1418 FILLER_68_155
*1419 FILLER_68_171
*1420 FILLER_68_26
*1421 FILLER_68_34
*1422 FILLER_68_37
*1423 FILLER_69_10
*1424 FILLER_69_111
*1425 FILLER_69_12
*1426 FILLER_69_127
*1427 FILLER_69_135
*1428 FILLER_69_139
*1429 FILLER_69_142
*1430 FILLER_69_144
*1431 FILLER_69_159
*1432 FILLER_69_167
*1433 FILLER_69_207
*1434 FILLER_69_209
*1435 FILLER_69_212
*1436 FILLER_69_27
*1437 FILLER_69_43
*1438 FILLER_69_47
*1439 FILLER_69_63
*1440 FILLER_69_67
*1441 FILLER_69_69
*1442 FILLER_69_72
*1443 FILLER_69_88
*1444 FILLER_69_96
*1445 FILLER_6_104
*1446 FILLER_6_107
*1447 FILLER_6_115
*1448 FILLER_6_148
*1449 FILLER_6_164
*1450 FILLER_6_172
*1451 FILLER_6_174
*1452 FILLER_6_177
*1453 FILLER_6_209
*1454 FILLER_6_217
*1455 FILLER_6_24
*1456 FILLER_6_32
*1457 FILLER_6_34
*1458 FILLER_6_37
*1459 FILLER_6_53
*1460 FILLER_6_81
*1461 FILLER_6_89