*SPEF "ieee 1481-1999"
*DESIGN "W_IO"
*DATE "11:05:22 Friday November 28, 2025"
*VENDOR "The OpenROAD Project"
*PROGRAM "OpenROAD"
*VERSION "341650e72dad0dc8571822ff8c5d9c5e365327f7"
*DESIGN_FLOW "NAME_SCOPE LOCAL" "PIN_CAP NONE"
*DIVIDER /
*DELIMITER :
*BUS_DELIMITER []
*T_UNIT 1 NS
*C_UNIT 1 PF
*R_UNIT 1 OHM
*L_UNIT 1 HENRY

*NAME_MAP
*1 A_I_top
*2 A_O_top
*3 A_T_top
*4 B_I_top
*5 B_O_top
*6 B_T_top
*7 E1BEG[0]
*8 E1BEG[1]
*9 E1BEG[2]
*10 E1BEG[3]
*11 E2BEG[0]
*12 E2BEG[1]
*13 E2BEG[2]
*14 E2BEG[3]
*15 E2BEG[4]
*16 E2BEG[5]
*17 E2BEG[6]
*18 E2BEG[7]
*19 E2BEGb[0]
*20 E2BEGb[1]
*21 E2BEGb[2]
*22 E2BEGb[3]
*23 E2BEGb[4]
*24 E2BEGb[5]
*25 E2BEGb[6]
*26 E2BEGb[7]
*27 E6BEG[0]
*28 E6BEG[10]
*29 E6BEG[11]
*30 E6BEG[1]
*31 E6BEG[2]
*32 E6BEG[3]
*33 E6BEG[4]
*34 E6BEG[5]
*35 E6BEG[6]
*36 E6BEG[7]
*37 E6BEG[8]
*38 E6BEG[9]
*39 EE4BEG[0]
*40 EE4BEG[10]
*41 EE4BEG[11]
*42 EE4BEG[12]
*43 EE4BEG[13]
*44 EE4BEG[14]
*45 EE4BEG[15]
*46 EE4BEG[1]
*47 EE4BEG[2]
*48 EE4BEG[3]
*49 EE4BEG[4]
*50 EE4BEG[5]
*51 EE4BEG[6]
*52 EE4BEG[7]
*53 EE4BEG[8]
*54 EE4BEG[9]
*55 FrameData[0]
*56 FrameData[10]
*57 FrameData[11]
*58 FrameData[12]
*59 FrameData[13]
*60 FrameData[14]
*61 FrameData[15]
*62 FrameData[16]
*63 FrameData[17]
*64 FrameData[18]
*65 FrameData[19]
*66 FrameData[1]
*67 FrameData[20]
*68 FrameData[21]
*69 FrameData[22]
*70 FrameData[23]
*71 FrameData[24]
*72 FrameData[25]
*73 FrameData[26]
*74 FrameData[27]
*75 FrameData[28]
*76 FrameData[29]
*77 FrameData[2]
*78 FrameData[30]
*79 FrameData[31]
*80 FrameData[3]
*81 FrameData[4]
*82 FrameData[5]
*83 FrameData[6]
*84 FrameData[7]
*85 FrameData[8]
*86 FrameData[9]
*87 FrameData_O[0]
*88 FrameData_O[10]
*89 FrameData_O[11]
*90 FrameData_O[12]
*91 FrameData_O[13]
*92 FrameData_O[14]
*93 FrameData_O[15]
*94 FrameData_O[16]
*95 FrameData_O[17]
*96 FrameData_O[18]
*97 FrameData_O[19]
*98 FrameData_O[1]
*99 FrameData_O[20]
*100 FrameData_O[21]
*101 FrameData_O[22]
*102 FrameData_O[23]
*103 FrameData_O[24]
*104 FrameData_O[25]
*105 FrameData_O[26]
*106 FrameData_O[27]
*107 FrameData_O[28]
*108 FrameData_O[29]
*109 FrameData_O[2]
*110 FrameData_O[30]
*111 FrameData_O[31]
*112 FrameData_O[3]
*113 FrameData_O[4]
*114 FrameData_O[5]
*115 FrameData_O[6]
*116 FrameData_O[7]
*117 FrameData_O[8]
*118 FrameData_O[9]
*119 FrameStrobe[0]
*120 FrameStrobe[10]
*121 FrameStrobe[11]
*122 FrameStrobe[12]
*123 FrameStrobe[13]
*124 FrameStrobe[14]
*125 FrameStrobe[15]
*126 FrameStrobe[16]
*127 FrameStrobe[17]
*128 FrameStrobe[18]
*129 FrameStrobe[19]
*130 FrameStrobe[1]
*131 FrameStrobe[2]
*132 FrameStrobe[3]
*133 FrameStrobe[4]
*134 FrameStrobe[5]
*135 FrameStrobe[6]
*136 FrameStrobe[7]
*137 FrameStrobe[8]
*138 FrameStrobe[9]
*139 FrameStrobe_O[0]
*140 FrameStrobe_O[10]
*141 FrameStrobe_O[11]
*142 FrameStrobe_O[12]
*143 FrameStrobe_O[13]
*144 FrameStrobe_O[14]
*145 FrameStrobe_O[15]
*146 FrameStrobe_O[16]
*147 FrameStrobe_O[17]
*148 FrameStrobe_O[18]
*149 FrameStrobe_O[19]
*150 FrameStrobe_O[1]
*151 FrameStrobe_O[2]
*152 FrameStrobe_O[3]
*153 FrameStrobe_O[4]
*154 FrameStrobe_O[5]
*155 FrameStrobe_O[6]
*156 FrameStrobe_O[7]
*157 FrameStrobe_O[8]
*158 FrameStrobe_O[9]
*159 UserCLK
*160 UserCLKo
*163 W1END[0]
*164 W1END[1]
*165 W1END[2]
*166 W1END[3]
*167 W2END[0]
*168 W2END[1]
*169 W2END[2]
*170 W2END[3]
*171 W2END[4]
*172 W2END[5]
*173 W2END[6]
*174 W2END[7]
*175 W2MID[0]
*176 W2MID[1]
*177 W2MID[2]
*178 W2MID[3]
*179 W2MID[4]
*180 W2MID[5]
*181 W2MID[6]
*182 W2MID[7]
*183 W6END[0]
*184 W6END[10]
*185 W6END[11]
*186 W6END[1]
*187 W6END[2]
*188 W6END[3]
*189 W6END[4]
*190 W6END[5]
*191 W6END[6]
*192 W6END[7]
*193 W6END[8]
*194 W6END[9]
*195 WW4END[0]
*196 WW4END[10]
*197 WW4END[11]
*198 WW4END[12]
*199 WW4END[13]
*200 WW4END[14]
*201 WW4END[15]
*202 WW4END[1]
*203 WW4END[2]
*204 WW4END[3]
*205 WW4END[4]
*206 WW4END[5]
*207 WW4END[6]
*208 WW4END[7]
*209 WW4END[8]
*210 WW4END[9]
*211 Inst_A_IO_1_bidirectional_frame_config_pass\.Q
*212 Inst_B_IO_1_bidirectional_frame_config_pass\.Q
*213 Inst_W_IO_ConfigMem\.Inst_frame0_bit0\.Q
*214 Inst_W_IO_ConfigMem\.Inst_frame0_bit1\.Q
*215 Inst_W_IO_ConfigMem\.Inst_frame0_bit10\.Q
*216 Inst_W_IO_ConfigMem\.Inst_frame0_bit11\.Q
*217 Inst_W_IO_ConfigMem\.Inst_frame0_bit12\.Q
*218 Inst_W_IO_ConfigMem\.Inst_frame0_bit13\.Q
*219 Inst_W_IO_ConfigMem\.Inst_frame0_bit14\.Q
*220 Inst_W_IO_ConfigMem\.Inst_frame0_bit15\.Q
*221 Inst_W_IO_ConfigMem\.Inst_frame0_bit16\.Q
*222 Inst_W_IO_ConfigMem\.Inst_frame0_bit17\.Q
*223 Inst_W_IO_ConfigMem\.Inst_frame0_bit18\.Q
*224 Inst_W_IO_ConfigMem\.Inst_frame0_bit19\.Q
*225 Inst_W_IO_ConfigMem\.Inst_frame0_bit2\.Q
*226 Inst_W_IO_ConfigMem\.Inst_frame0_bit20\.Q
*227 Inst_W_IO_ConfigMem\.Inst_frame0_bit21\.Q
*228 Inst_W_IO_ConfigMem\.Inst_frame0_bit22\.Q
*229 Inst_W_IO_ConfigMem\.Inst_frame0_bit23\.Q
*230 Inst_W_IO_ConfigMem\.Inst_frame0_bit24\.Q
*231 Inst_W_IO_ConfigMem\.Inst_frame0_bit25\.Q
*232 Inst_W_IO_ConfigMem\.Inst_frame0_bit26\.Q
*233 Inst_W_IO_ConfigMem\.Inst_frame0_bit27\.Q
*234 Inst_W_IO_ConfigMem\.Inst_frame0_bit28\.Q
*235 Inst_W_IO_ConfigMem\.Inst_frame0_bit29\.Q
*236 Inst_W_IO_ConfigMem\.Inst_frame0_bit3\.Q
*237 Inst_W_IO_ConfigMem\.Inst_frame0_bit30\.Q
*238 Inst_W_IO_ConfigMem\.Inst_frame0_bit31\.Q
*239 Inst_W_IO_ConfigMem\.Inst_frame0_bit4\.Q
*240 Inst_W_IO_ConfigMem\.Inst_frame0_bit5\.Q
*241 Inst_W_IO_ConfigMem\.Inst_frame0_bit6\.Q
*242 Inst_W_IO_ConfigMem\.Inst_frame0_bit7\.Q
*243 Inst_W_IO_ConfigMem\.Inst_frame0_bit8\.Q
*244 Inst_W_IO_ConfigMem\.Inst_frame0_bit9\.Q
*245 Inst_W_IO_ConfigMem\.Inst_frame1_bit0\.Q
*246 Inst_W_IO_ConfigMem\.Inst_frame1_bit1\.Q
*247 Inst_W_IO_ConfigMem\.Inst_frame1_bit10\.Q
*248 Inst_W_IO_ConfigMem\.Inst_frame1_bit11\.Q
*249 Inst_W_IO_ConfigMem\.Inst_frame1_bit12\.Q
*250 Inst_W_IO_ConfigMem\.Inst_frame1_bit13\.Q
*251 Inst_W_IO_ConfigMem\.Inst_frame1_bit14\.Q
*252 Inst_W_IO_ConfigMem\.Inst_frame1_bit15\.Q
*253 Inst_W_IO_ConfigMem\.Inst_frame1_bit16\.Q
*254 Inst_W_IO_ConfigMem\.Inst_frame1_bit17\.Q
*255 Inst_W_IO_ConfigMem\.Inst_frame1_bit18\.Q
*256 Inst_W_IO_ConfigMem\.Inst_frame1_bit19\.Q
*257 Inst_W_IO_ConfigMem\.Inst_frame1_bit2\.Q
*258 Inst_W_IO_ConfigMem\.Inst_frame1_bit20\.Q
*259 Inst_W_IO_ConfigMem\.Inst_frame1_bit21\.Q
*260 Inst_W_IO_ConfigMem\.Inst_frame1_bit22\.Q
*261 Inst_W_IO_ConfigMem\.Inst_frame1_bit23\.Q
*262 Inst_W_IO_ConfigMem\.Inst_frame1_bit24\.Q
*263 Inst_W_IO_ConfigMem\.Inst_frame1_bit25\.Q
*264 Inst_W_IO_ConfigMem\.Inst_frame1_bit26\.Q
*265 Inst_W_IO_ConfigMem\.Inst_frame1_bit27\.Q
*266 Inst_W_IO_ConfigMem\.Inst_frame1_bit28\.Q
*267 Inst_W_IO_ConfigMem\.Inst_frame1_bit29\.Q
*268 Inst_W_IO_ConfigMem\.Inst_frame1_bit3\.Q
*269 Inst_W_IO_ConfigMem\.Inst_frame1_bit30\.Q
*270 Inst_W_IO_ConfigMem\.Inst_frame1_bit31\.Q
*271 Inst_W_IO_ConfigMem\.Inst_frame1_bit4\.Q
*272 Inst_W_IO_ConfigMem\.Inst_frame1_bit5\.Q
*273 Inst_W_IO_ConfigMem\.Inst_frame1_bit6\.Q
*274 Inst_W_IO_ConfigMem\.Inst_frame1_bit7\.Q
*275 Inst_W_IO_ConfigMem\.Inst_frame1_bit8\.Q
*276 Inst_W_IO_ConfigMem\.Inst_frame1_bit9\.Q
*277 Inst_W_IO_ConfigMem\.Inst_frame2_bit0\.Q
*278 Inst_W_IO_ConfigMem\.Inst_frame2_bit1\.Q
*279 Inst_W_IO_ConfigMem\.Inst_frame2_bit10\.Q
*280 Inst_W_IO_ConfigMem\.Inst_frame2_bit11\.Q
*281 Inst_W_IO_ConfigMem\.Inst_frame2_bit12\.Q
*282 Inst_W_IO_ConfigMem\.Inst_frame2_bit13\.Q
*283 Inst_W_IO_ConfigMem\.Inst_frame2_bit14\.Q
*284 Inst_W_IO_ConfigMem\.Inst_frame2_bit15\.Q
*285 Inst_W_IO_ConfigMem\.Inst_frame2_bit16\.Q
*286 Inst_W_IO_ConfigMem\.Inst_frame2_bit17\.Q
*287 Inst_W_IO_ConfigMem\.Inst_frame2_bit18\.Q
*288 Inst_W_IO_ConfigMem\.Inst_frame2_bit19\.Q
*289 Inst_W_IO_ConfigMem\.Inst_frame2_bit2\.Q
*290 Inst_W_IO_ConfigMem\.Inst_frame2_bit20\.Q
*291 Inst_W_IO_ConfigMem\.Inst_frame2_bit21\.Q
*292 Inst_W_IO_ConfigMem\.Inst_frame2_bit22\.Q
*293 Inst_W_IO_ConfigMem\.Inst_frame2_bit23\.Q
*294 Inst_W_IO_ConfigMem\.Inst_frame2_bit24\.Q
*295 Inst_W_IO_ConfigMem\.Inst_frame2_bit25\.Q
*296 Inst_W_IO_ConfigMem\.Inst_frame2_bit26\.Q
*297 Inst_W_IO_ConfigMem\.Inst_frame2_bit27\.Q
*298 Inst_W_IO_ConfigMem\.Inst_frame2_bit28\.Q
*299 Inst_W_IO_ConfigMem\.Inst_frame2_bit29\.Q
*300 Inst_W_IO_ConfigMem\.Inst_frame2_bit3\.Q
*301 Inst_W_IO_ConfigMem\.Inst_frame2_bit30\.Q
*302 Inst_W_IO_ConfigMem\.Inst_frame2_bit31\.Q
*303 Inst_W_IO_ConfigMem\.Inst_frame2_bit4\.Q
*304 Inst_W_IO_ConfigMem\.Inst_frame2_bit5\.Q
*305 Inst_W_IO_ConfigMem\.Inst_frame2_bit6\.Q
*306 Inst_W_IO_ConfigMem\.Inst_frame2_bit7\.Q
*307 Inst_W_IO_ConfigMem\.Inst_frame2_bit8\.Q
*308 Inst_W_IO_ConfigMem\.Inst_frame2_bit9\.Q
*309 Inst_W_IO_ConfigMem\.Inst_frame3_bit22\.Q
*310 Inst_W_IO_ConfigMem\.Inst_frame3_bit23\.Q
*311 Inst_W_IO_ConfigMem\.Inst_frame3_bit24\.Q
*312 Inst_W_IO_ConfigMem\.Inst_frame3_bit25\.Q
*313 Inst_W_IO_ConfigMem\.Inst_frame3_bit26\.Q
*314 Inst_W_IO_ConfigMem\.Inst_frame3_bit27\.Q
*315 Inst_W_IO_ConfigMem\.Inst_frame3_bit28\.Q
*316 Inst_W_IO_ConfigMem\.Inst_frame3_bit29\.Q
*317 Inst_W_IO_ConfigMem\.Inst_frame3_bit30\.Q
*318 Inst_W_IO_ConfigMem\.Inst_frame3_bit31\.Q
*319 Inst_W_IO_switch_matrix\.E1BEG0
*320 Inst_W_IO_switch_matrix\.E1BEG1
*321 Inst_W_IO_switch_matrix\.E1BEG2
*322 Inst_W_IO_switch_matrix\.E1BEG3
*323 Inst_W_IO_switch_matrix\.E2BEG0
*324 Inst_W_IO_switch_matrix\.E2BEG1
*325 Inst_W_IO_switch_matrix\.E2BEG2
*326 Inst_W_IO_switch_matrix\.E2BEG3
*327 Inst_W_IO_switch_matrix\.E2BEG4
*328 Inst_W_IO_switch_matrix\.E2BEG5
*329 Inst_W_IO_switch_matrix\.E2BEG6
*330 Inst_W_IO_switch_matrix\.E2BEG7
*331 Inst_W_IO_switch_matrix\.E2BEGb0
*332 Inst_W_IO_switch_matrix\.E2BEGb1
*333 Inst_W_IO_switch_matrix\.E2BEGb2
*334 Inst_W_IO_switch_matrix\.E2BEGb3
*335 Inst_W_IO_switch_matrix\.E2BEGb4
*336 Inst_W_IO_switch_matrix\.E2BEGb5
*337 Inst_W_IO_switch_matrix\.E2BEGb6
*338 Inst_W_IO_switch_matrix\.E2BEGb7
*339 Inst_W_IO_switch_matrix\.E6BEG0
*340 Inst_W_IO_switch_matrix\.E6BEG1
*341 Inst_W_IO_switch_matrix\.E6BEG10
*342 Inst_W_IO_switch_matrix\.E6BEG11
*343 Inst_W_IO_switch_matrix\.E6BEG2
*344 Inst_W_IO_switch_matrix\.E6BEG3
*345 Inst_W_IO_switch_matrix\.E6BEG4
*346 Inst_W_IO_switch_matrix\.E6BEG5
*347 Inst_W_IO_switch_matrix\.E6BEG6
*348 Inst_W_IO_switch_matrix\.E6BEG7
*349 Inst_W_IO_switch_matrix\.E6BEG8
*350 Inst_W_IO_switch_matrix\.E6BEG9
*351 Inst_W_IO_switch_matrix\.EE4BEG0
*352 Inst_W_IO_switch_matrix\.EE4BEG1
*353 Inst_W_IO_switch_matrix\.EE4BEG10
*354 Inst_W_IO_switch_matrix\.EE4BEG11
*355 Inst_W_IO_switch_matrix\.EE4BEG12
*356 Inst_W_IO_switch_matrix\.EE4BEG13
*357 Inst_W_IO_switch_matrix\.EE4BEG14
*358 Inst_W_IO_switch_matrix\.EE4BEG15
*359 Inst_W_IO_switch_matrix\.EE4BEG2
*360 Inst_W_IO_switch_matrix\.EE4BEG3
*361 Inst_W_IO_switch_matrix\.EE4BEG4
*362 Inst_W_IO_switch_matrix\.EE4BEG5
*363 Inst_W_IO_switch_matrix\.EE4BEG6
*364 Inst_W_IO_switch_matrix\.EE4BEG7
*365 Inst_W_IO_switch_matrix\.EE4BEG8
*366 Inst_W_IO_switch_matrix\.EE4BEG9
*367 UserCLK_regs
*368 _000_
*369 _001_
*370 _002_
*371 _003_
*372 _004_
*373 _005_
*374 _006_
*375 _007_
*376 _008_
*377 _009_
*378 _010_
*379 _011_
*380 _012_
*381 _013_
*382 _014_
*383 _015_
*384 _016_
*385 _017_
*386 _018_
*387 _019_
*388 _020_
*389 _021_
*390 _022_
*391 _023_
*392 _024_
*393 _025_
*394 _026_
*395 _027_
*396 _028_
*397 _029_
*398 _030_
*399 _031_
*400 _032_
*401 _033_
*402 _034_
*403 _035_
*404 _036_
*405 _037_
*406 _038_
*407 _039_
*408 _040_
*409 _041_
*410 clknet_0_UserCLK
*411 clknet_0_UserCLK_regs
*412 clknet_1_0__leaf_UserCLK
*413 clknet_1_0__leaf_UserCLK_regs
*414 clknet_1_1__leaf_UserCLK_regs
*415 net1
*416 net10
*417 net100
*418 net101
*419 net102
*420 net103
*421 net104
*422 net105
*423 net106
*424 net107
*425 net108
*426 net109
*427 net11
*428 net110
*429 net111
*430 net112
*431 net113
*432 net114
*433 net115
*434 net116
*435 net117
*436 net118
*437 net119
*438 net12
*439 net120
*440 net121
*441 net122
*442 net123
*443 net124
*444 net125
*445 net126
*446 net127
*447 net128
*448 net129
*449 net13
*450 net130
*451 net131
*452 net132
*453 net133
*454 net134
*455 net135
*456 net136
*457 net137
*458 net138
*459 net139
*460 net14
*461 net140
*462 net141
*463 net142
*464 net143
*465 net144
*466 net145
*467 net146
*468 net147
*469 net148
*470 net149
*471 net15
*472 net150
*473 net151
*474 net152
*475 net153
*476 net154
*477 net155
*478 net156
*479 net157
*480 net158
*481 net159
*482 net16
*483 net160
*484 net161
*485 net162
*486 net163
*487 net164
*488 net165
*489 net166
*490 net167
*491 net168
*492 net169
*493 net17
*494 net170
*495 net171
*496 net172
*497 net173
*498 net174
*499 net175
*500 net176
*501 net177
*502 net178
*503 net179
*504 net18
*505 net180
*506 net181
*507 net182
*508 net183
*509 net184
*510 net185
*511 net186
*512 net187
*513 net188
*514 net189
*515 net19
*516 net190
*517 net191
*518 net192
*519 net193
*520 net194
*521 net195
*522 net196
*523 net197
*524 net198
*525 net199
*526 net2
*527 net20
*528 net200
*529 net201
*530 net202
*531 net203
*532 net204
*533 net205
*534 net206
*535 net21
*536 net22
*537 net23
*538 net24
*539 net25
*540 net26
*541 net27
*542 net28
*543 net29
*544 net3
*545 net30
*546 net31
*547 net32
*548 net33
*549 net34
*550 net35
*551 net36
*552 net37
*553 net38
*554 net39
*555 net4
*556 net40
*557 net41
*558 net42
*559 net43
*560 net44
*561 net45
*562 net46
*563 net47
*564 net48
*565 net49
*566 net5
*567 net50
*568 net51
*569 net52
*570 net53
*571 net54
*572 net55
*573 net56
*574 net57
*575 net58
*576 net59
*577 net6
*578 net60
*579 net61
*580 net62
*581 net63
*582 net64
*583 net65
*584 net66
*585 net67
*586 net68
*587 net69
*588 net7
*589 net70
*590 net71
*591 net72
*592 net73
*593 net74
*594 net75
*595 net76
*596 net77
*597 net78
*598 net79
*599 net8
*600 net80
*601 net81
*602 net82
*603 net83
*604 net84
*605 net85
*606 net86
*607 net87
*608 net88
*609 net89
*610 net9
*611 net90
*612 net91
*613 net92
*614 net93
*615 net94
*616 net95
*617 net96
*618 net97
*619 net98
*620 net99
*621 FILLER_0_104
*622 FILLER_0_138
*623 FILLER_0_172
*624 FILLER_0_2
*625 FILLER_0_206
*626 FILLER_0_240
*627 FILLER_0_36
*628 FILLER_0_45
*629 FILLER_0_57
*630 FILLER_0_65
*631 FILLER_0_67
*632 FILLER_0_70
*633 FILLER_10_104
*634 FILLER_10_107
*635 FILLER_10_171
*636 FILLER_10_177
*637 FILLER_10_18
*638 FILLER_10_209
*639 FILLER_10_34
*640 FILLER_10_37
*641 FILLER_10_53
*642 FILLER_10_55
*643 FILLER_10_96
*644 FILLER_11_115
*645 FILLER_11_131
*646 FILLER_11_139
*647 FILLER_11_142
*648 FILLER_11_206
*649 FILLER_11_212
*650 FILLER_11_220
*651 FILLER_11_224
*652 FILLER_11_24
*653 FILLER_11_32
*654 FILLER_11_34
*655 FILLER_11_43
*656 FILLER_11_51
*657 FILLER_11_63
*658 FILLER_11_67
*659 FILLER_11_69
*660 FILLER_11_72
*661 FILLER_11_80
*662 FILLER_11_82
*663 FILLER_12_107
*664 FILLER_12_111
*665 FILLER_12_129
*666 FILLER_12_161
*667 FILLER_12_169
*668 FILLER_12_173
*669 FILLER_12_177
*670 FILLER_12_209
*671 FILLER_12_225
*672 FILLER_12_26
*673 FILLER_12_34
*674 FILLER_12_37
*675 FILLER_12_39
*676 FILLER_12_48
*677 FILLER_12_52
*678 FILLER_13_113
*679 FILLER_13_117
*680 FILLER_13_133
*681 FILLER_13_137
*682 FILLER_13_139
*683 FILLER_13_142
*684 FILLER_13_206
*685 FILLER_13_212
*686 FILLER_13_220
*687 FILLER_13_224
*688 FILLER_13_24
*689 FILLER_13_28
*690 FILLER_13_72
*691 FILLER_13_80
*692 FILLER_14_139
*693 FILLER_14_171
*694 FILLER_14_177
*695 FILLER_14_209
*696 FILLER_14_34
*697 FILLER_14_37
*698 FILLER_14_49
*699 FILLER_15_110
*700 FILLER_15_118
*701 FILLER_15_134
*702 FILLER_15_142
*703 FILLER_15_206
*704 FILLER_15_212
*705 FILLER_15_220
*706 FILLER_15_224
*707 FILLER_15_92
*708 FILLER_16_103
*709 FILLER_16_107
*710 FILLER_16_151
*711 FILLER_16_167
*712 FILLER_16_177
*713 FILLER_16_2
*714 FILLER_16_209
*715 FILLER_16_225
*716 FILLER_16_71
*717 FILLER_16_95
*718 FILLER_17_113
*719 FILLER_17_154
*720 FILLER_17_186
*721 FILLER_17_202
*722 FILLER_17_212
*723 FILLER_17_220
*724 FILLER_17_224
*725 FILLER_17_26
*726 FILLER_17_30
*727 FILLER_17_32
*728 FILLER_17_65
*729 FILLER_17_69
*730 FILLER_17_72
*731 FILLER_17_97
*732 FILLER_18_103
*733 FILLER_18_107
*734 FILLER_18_111
*735 FILLER_18_118
*736 FILLER_18_122
*737 FILLER_18_124
*738 FILLER_18_163
*739 FILLER_18_171
*740 FILLER_18_177
*741 FILLER_18_2
*742 FILLER_18_209
*743 FILLER_18_29
*744 FILLER_18_33
*745 FILLER_18_37
*746 FILLER_18_41
*747 FILLER_18_6
*748 FILLER_18_8
*749 FILLER_19_121
*750 FILLER_19_162
*751 FILLER_19_194
*752 FILLER_19_2
*753 FILLER_19_212
*754 FILLER_19_220
*755 FILLER_19_224
*756 FILLER_19_6
*757 FILLER_19_69
*758 FILLER_19_72
*759 FILLER_19_8
*760 FILLER_1_136
*761 FILLER_1_142
*762 FILLER_1_2
*763 FILLER_1_206
*764 FILLER_1_212
*765 FILLER_1_220
*766 FILLER_1_224
*767 FILLER_1_66
*768 FILLER_1_72
*769 FILLER_20_113
*770 FILLER_20_115
*771 FILLER_20_158
*772 FILLER_20_174
*773 FILLER_20_177
*774 FILLER_20_209
*775 FILLER_20_225
*776 FILLER_20_26
*777 FILLER_20_71
*778 FILLER_20_79
*779 FILLER_21_101
*780 FILLER_21_142
*781 FILLER_21_206
*782 FILLER_21_212
*783 FILLER_21_220
*784 FILLER_21_224
*785 FILLER_21_72
*786 FILLER_21_76
*787 FILLER_21_97
*788 FILLER_22_103
*789 FILLER_22_107
*790 FILLER_22_111
*791 FILLER_22_127
*792 FILLER_22_152
*793 FILLER_22_160
*794 FILLER_22_170
*795 FILLER_22_174
*796 FILLER_22_177
*797 FILLER_22_209
*798 FILLER_22_24
*799 FILLER_22_26
*800 FILLER_22_37
*801 FILLER_22_61
*802 FILLER_23_148
*803 FILLER_23_180
*804 FILLER_23_196
*805 FILLER_23_2
*806 FILLER_23_204
*807 FILLER_23_208
*808 FILLER_23_212
*809 FILLER_23_220
*810 FILLER_23_224
*811 FILLER_23_26
*812 FILLER_23_48
*813 FILLER_23_72
*814 FILLER_24_122
*815 FILLER_24_141
*816 FILLER_24_149
*817 FILLER_24_173
*818 FILLER_24_177
*819 FILLER_24_209
*820 FILLER_24_225
*821 FILLER_24_30
*822 FILLER_24_34
*823 FILLER_24_37
*824 FILLER_24_41
*825 FILLER_24_91
*826 FILLER_25_148
*827 FILLER_25_184
*828 FILLER_25_2
*829 FILLER_25_200
*830 FILLER_25_208
*831 FILLER_25_212
*832 FILLER_25_220
*833 FILLER_25_224
*834 FILLER_25_4
*835 FILLER_25_45
*836 FILLER_25_67
*837 FILLER_25_69
*838 FILLER_25_72
*839 FILLER_25_76
*840 FILLER_26_10
*841 FILLER_26_14
*842 FILLER_26_173
*843 FILLER_26_177
*844 FILLER_26_209
*845 FILLER_26_217
*846 FILLER_26_37
*847 FILLER_27_104
*848 FILLER_27_146
*849 FILLER_27_167
*850 FILLER_27_199
*851 FILLER_27_2
*852 FILLER_27_207
*853 FILLER_27_209
*854 FILLER_27_212
*855 FILLER_27_31
*856 FILLER_27_35
*857 FILLER_27_69
*858 FILLER_28_167
*859 FILLER_28_177
*860 FILLER_28_2
*861 FILLER_28_209
*862 FILLER_28_225
*863 FILLER_28_31
*864 FILLER_28_37
*865 FILLER_28_41
*866 FILLER_28_91
*867 FILLER_29_10
*868 FILLER_29_139
*869 FILLER_29_162
*870 FILLER_29_174
*871 FILLER_29_206
*872 FILLER_29_212
*873 FILLER_29_66
*874 FILLER_29_72
*875 FILLER_29_84
*876 FILLER_29_86
*877 FILLER_2_101
*878 FILLER_2_107
*879 FILLER_2_171
*880 FILLER_2_177
*881 FILLER_2_2
*882 FILLER_2_209
*883 FILLER_2_34
*884 FILLER_2_37
*885 FILLER_30_107
*886 FILLER_30_160
*887 FILLER_30_170
*888 FILLER_30_174
*889 FILLER_30_177
*890 FILLER_30_2
*891 FILLER_30_209
*892 FILLER_30_37
*893 FILLER_30_41
*894 FILLER_30_51
*895 FILLER_30_59
*896 FILLER_30_92
*897 FILLER_30_96
*898 FILLER_30_98
*899 FILLER_31_10
*900 FILLER_31_132
*901 FILLER_31_142
*902 FILLER_31_146
*903 FILLER_31_148
*904 FILLER_31_181
*905 FILLER_31_197
*906 FILLER_31_205
*907 FILLER_31_209
*908 FILLER_31_212
*909 FILLER_31_43
*910 FILLER_31_67
*911 FILLER_31_69
*912 FILLER_31_80
*913 FILLER_32_103
*914 FILLER_32_115
*915 FILLER_32_117
*916 FILLER_32_126
*917 FILLER_32_134
*918 FILLER_32_158
*919 FILLER_32_162
*920 FILLER_32_172
*921 FILLER_32_174
*922 FILLER_32_177
*923 FILLER_32_2
*924 FILLER_32_209
*925 FILLER_32_225
*926 FILLER_32_34
*927 FILLER_32_37
*928 FILLER_32_53
*929 FILLER_32_57
*930 FILLER_32_79
*931 FILLER_32_95
*932 FILLER_33_142
*933 FILLER_33_170
*934 FILLER_33_202
*935 FILLER_33_212
*936 FILLER_33_30
*937 FILLER_33_34
*938 FILLER_33_55
*939 FILLER_33_63
*940 FILLER_33_67
*941 FILLER_33_69
*942 FILLER_33_72
*943 FILLER_33_80
*944 FILLER_34_10
*945 FILLER_34_107
*946 FILLER_34_111
*947 FILLER_34_113
*948 FILLER_34_14
*949 FILLER_34_146
*950 FILLER_34_177
*951 FILLER_34_209
*952 FILLER_34_69
*953 FILLER_35_142
*954 FILLER_35_150
*955 FILLER_35_154
*956 FILLER_35_156
*957 FILLER_35_189
*958 FILLER_35_205
*959 FILLER_35_209
*960 FILLER_35_212
*961 FILLER_35_220
*962 FILLER_35_224
*963 FILLER_35_226
*964 FILLER_35_72
*965 FILLER_36_107
*966 FILLER_36_111
*967 FILLER_36_173
*968 FILLER_36_177
*969 FILLER_36_209
*970 FILLER_36_225
*971 FILLER_36_30
*972 FILLER_36_34
*973 FILLER_36_57
*974 FILLER_36_65
*975 FILLER_36_87
*976 FILLER_36_95
*977 FILLER_37_109
*978 FILLER_37_117
*979 FILLER_37_127
*980 FILLER_37_131
*981 FILLER_37_162
*982 FILLER_37_194
*983 FILLER_37_212
*984 FILLER_37_220
*985 FILLER_37_224
*986 FILLER_37_226
*987 FILLER_37_32
*988 FILLER_37_36
*989 FILLER_37_72
*990 FILLER_37_76
*991 FILLER_38_102
*992 FILLER_38_104
*993 FILLER_38_107
*994 FILLER_38_115
*995 FILLER_38_117
*996 FILLER_38_138
*997 FILLER_38_174
*998 FILLER_38_177
*999 FILLER_38_2
*1000 FILLER_38_209
*1001 FILLER_38_37
*1002 FILLER_38_45
*1003 FILLER_38_47
*1004 FILLER_38_84
*1005 FILLER_38_93
*1006 FILLER_39_132
*1007 FILLER_39_174
*1008 FILLER_39_2
*1009 FILLER_39_206
*1010 FILLER_39_212
*1011 FILLER_39_41
*1012 FILLER_39_49
*1013 FILLER_39_53
*1014 FILLER_39_55
*1015 FILLER_39_6
*1016 FILLER_39_8
*1017 FILLER_39_80
*1018 FILLER_39_96
*1019 FILLER_3_136
*1020 FILLER_3_142
*1021 FILLER_3_2
*1022 FILLER_3_206
*1023 FILLER_3_212
*1024 FILLER_3_220
*1025 FILLER_3_224
*1026 FILLER_3_66
*1027 FILLER_3_72
*1028 FILLER_40_107
*1029 FILLER_40_124
*1030 FILLER_40_126
*1031 FILLER_40_170
*1032 FILLER_40_174
*1033 FILLER_40_177
*1034 FILLER_40_2
*1035 FILLER_40_209
*1036 FILLER_40_225
*1037 FILLER_40_34
*1038 FILLER_40_37
*1039 FILLER_40_45
*1040 FILLER_40_81
*1041 FILLER_41_117
*1042 FILLER_41_121
*1043 FILLER_41_131
*1044 FILLER_41_139
*1045 FILLER_41_142
*1046 FILLER_41_171
*1047 FILLER_41_203
*1048 FILLER_41_207
*1049 FILLER_41_209
*1050 FILLER_41_212
*1051 FILLER_41_30
*1052 FILLER_41_38
*1053 FILLER_41_40
*1054 FILLER_41_69
*1055 FILLER_41_72
*1056 FILLER_41_96
*1057 FILLER_42_103
*1058 FILLER_42_107
*1059 FILLER_42_123
*1060 FILLER_42_174
*1061 FILLER_42_177
*1062 FILLER_42_2
*1063 FILLER_42_209
*1064 FILLER_42_57
*1065 FILLER_42_79
*1066 FILLER_42_95
*1067 FILLER_43_10
*1068 FILLER_43_137
*1069 FILLER_43_139
*1070 FILLER_43_14
*1071 FILLER_43_178
*1072 FILLER_43_212
*1073 FILLER_43_35
*1074 FILLER_43_37
*1075 FILLER_43_72
*1076 FILLER_43_80
*1077 FILLER_43_84
*1078 FILLER_44_10
*1079 FILLER_44_103
*1080 FILLER_44_14
*1081 FILLER_44_165
*1082 FILLER_44_173
*1083 FILLER_44_177
*1084 FILLER_44_209
*1085 FILLER_44_225
*1086 FILLER_44_37
*1087 FILLER_44_41
*1088 FILLER_45_139
*1089 FILLER_45_164
*1090 FILLER_45_196
*1091 FILLER_45_204
*1092 FILLER_45_208
*1093 FILLER_45_212
*1094 FILLER_45_42
*1095 FILLER_45_46
*1096 FILLER_45_56
*1097 FILLER_45_60
*1098 FILLER_45_92
*1099 FILLER_46_100
*1100 FILLER_46_104
*1101 FILLER_46_107
*1102 FILLER_46_123
*1103 FILLER_46_177
*1104 FILLER_46_209
*1105 FILLER_46_26
*1106 FILLER_46_34
*1107 FILLER_46_57
*1108 FILLER_46_59
*1109 FILLER_46_92
*1110 FILLER_47_134
*1111 FILLER_47_138
*1112 FILLER_47_178
*1113 FILLER_47_212
*1114 FILLER_47_30
*1115 FILLER_47_32
*1116 FILLER_47_61
*1117 FILLER_47_72
*1118 FILLER_48_10
*1119 FILLER_48_107
*1120 FILLER_48_116
*1121 FILLER_48_124
*1122 FILLER_48_14
*1123 FILLER_48_177
*1124 FILLER_48_209
*1125 FILLER_48_225
*1126 FILLER_48_37
*1127 FILLER_48_61
*1128 FILLER_48_77
*1129 FILLER_49_127
*1130 FILLER_49_135
*1131 FILLER_49_139
*1132 FILLER_49_18
*1133 FILLER_49_192
*1134 FILLER_49_208
*1135 FILLER_49_212
*1136 FILLER_49_34
*1137 FILLER_49_72
*1138 FILLER_49_74
*1139 FILLER_4_10
*1140 FILLER_4_101
*1141 FILLER_4_107
*1142 FILLER_4_171
*1143 FILLER_4_177
*1144 FILLER_4_209
*1145 FILLER_4_225
*1146 FILLER_4_26
*1147 FILLER_4_34
*1148 FILLER_4_37
*1149 FILLER_50_102
*1150 FILLER_50_104
*1151 FILLER_50_107
*1152 FILLER_50_116
*1153 FILLER_50_124
*1154 FILLER_50_161
*1155 FILLER_50_169
*1156 FILLER_50_173
*1157 FILLER_50_177
*1158 FILLER_50_2
*1159 FILLER_50_209
*1160 FILLER_50_37
*1161 FILLER_50_45
*1162 FILLER_50_49
*1163 FILLER_50_6
*1164 FILLER_50_90
*1165 FILLER_50_98
*1166 FILLER_51_10
*1167 FILLER_51_102
*1168 FILLER_51_134
*1169 FILLER_51_138
*1170 FILLER_51_142
*1171 FILLER_51_19
*1172 FILLER_51_206
*1173 FILLER_51_212
*1174 FILLER_51_23
*1175 FILLER_51_25
*1176 FILLER_51_46
*1177 FILLER_51_55
*1178 FILLER_51_63
*1179 FILLER_51_67
*1180 FILLER_51_69
*1181 FILLER_51_80
*1182 FILLER_52_10
*1183 FILLER_52_101
*1184 FILLER_52_107
*1185 FILLER_52_123
*1186 FILLER_52_177
*1187 FILLER_52_18
*1188 FILLER_52_209
*1189 FILLER_52_22
*1190 FILLER_52_225
*1191 FILLER_52_24
*1192 FILLER_52_33
*1193 FILLER_52_37
*1194 FILLER_53_10
*1195 FILLER_53_136
*1196 FILLER_53_142
*1197 FILLER_53_206
*1198 FILLER_53_212
*1199 FILLER_53_42
*1200 FILLER_53_58
*1201 FILLER_53_66
*1202 FILLER_53_72
*1203 FILLER_54_10
*1204 FILLER_54_101
*1205 FILLER_54_107
*1206 FILLER_54_171
*1207 FILLER_54_177
*1208 FILLER_54_209
*1209 FILLER_54_26
*1210 FILLER_54_34
*1211 FILLER_54_37
*1212 FILLER_55_10
*1213 FILLER_55_136
*1214 FILLER_55_142
*1215 FILLER_55_206
*1216 FILLER_55_212
*1217 FILLER_55_42
*1218 FILLER_55_58
*1219 FILLER_55_66
*1220 FILLER_55_72
*1221 FILLER_56_101
*1222 FILLER_56_107
*1223 FILLER_56_171
*1224 FILLER_56_177
*1225 FILLER_56_2
*1226 FILLER_56_209
*1227 FILLER_56_225
*1228 FILLER_56_34
*1229 FILLER_56_37
*1230 FILLER_57_10
*1231 FILLER_57_136
*1232 FILLER_57_142
*1233 FILLER_57_206
*1234 FILLER_57_212
*1235 FILLER_57_42
*1236 FILLER_57_58
*1237 FILLER_57_66
*1238 FILLER_57_72
*1239 FILLER_58_101
*1240 FILLER_58_107
*1241 FILLER_58_171
*1242 FILLER_58_177
*1243 FILLER_58_2
*1244 FILLER_58_209
*1245 FILLER_58_34
*1246 FILLER_58_37
*1247 FILLER_59_10
*1248 FILLER_59_136
*1249 FILLER_59_142
*1250 FILLER_59_206
*1251 FILLER_59_212
*1252 FILLER_59_42
*1253 FILLER_59_58
*1254 FILLER_59_66
*1255 FILLER_59_72
*1256 FILLER_5_136
*1257 FILLER_5_142
*1258 FILLER_5_2
*1259 FILLER_5_206
*1260 FILLER_5_212
*1261 FILLER_5_220
*1262 FILLER_5_224
*1263 FILLER_5_66
*1264 FILLER_5_72
*1265 FILLER_60_101
*1266 FILLER_60_107
*1267 FILLER_60_171
*1268 FILLER_60_177
*1269 FILLER_60_2
*1270 FILLER_60_209
*1271 FILLER_60_34
*1272 FILLER_60_37
*1273 FILLER_61_10
*1274 FILLER_61_136
*1275 FILLER_61_142
*1276 FILLER_61_206
*1277 FILLER_61_212
*1278 FILLER_61_42
*1279 FILLER_61_58
*1280 FILLER_61_66
*1281 FILLER_61_72
*1282 FILLER_62_10
*1283 FILLER_62_101
*1284 FILLER_62_107
*1285 FILLER_62_171
*1286 FILLER_62_177
*1287 FILLER_62_193
*1288 FILLER_62_201
*1289 FILLER_62_26
*1290 FILLER_62_34
*1291 FILLER_62_37
*1292 FILLER_63_136
*1293 FILLER_63_142
*1294 FILLER_63_174
*1295 FILLER_63_190
*1296 FILLER_63_198
*1297 FILLER_63_2
*1298 FILLER_63_212
*1299 FILLER_63_66
*1300 FILLER_63_72
*1301 FILLER_64_10
*1302 FILLER_64_101
*1303 FILLER_64_107
*1304 FILLER_64_171
*1305 FILLER_64_177
*1306 FILLER_64_193
*1307 FILLER_64_195
*1308 FILLER_64_204
*1309 FILLER_64_26
*1310 FILLER_64_34
*1311 FILLER_64_37
*1312 FILLER_65_136
*1313 FILLER_65_142
*1314 FILLER_65_174
*1315 FILLER_65_182
*1316 FILLER_65_186
*1317 FILLER_65_2
*1318 FILLER_65_212
*1319 FILLER_65_66
*1320 FILLER_65_72
*1321 FILLER_66_10
*1322 FILLER_66_101
*1323 FILLER_66_107
*1324 FILLER_66_171
*1325 FILLER_66_177
*1326 FILLER_66_181
*1327 FILLER_66_26
*1328 FILLER_66_34
*1329 FILLER_66_37
*1330 FILLER_67_10
*1331 FILLER_67_136
*1332 FILLER_67_142
*1333 FILLER_67_158
*1334 FILLER_67_166
*1335 FILLER_67_170
*1336 FILLER_67_195
*1337 FILLER_67_212
*1338 FILLER_67_42
*1339 FILLER_67_58
*1340 FILLER_67_66
*1341 FILLER_67_72
*1342 FILLER_68_101
*1343 FILLER_68_107
*1344 FILLER_68_139
*1345 FILLER_68_155
*1346 FILLER_68_159
*1347 FILLER_68_161
*1348 FILLER_68_170
*1349 FILLER_68_174
*1350 FILLER_68_2
*1351 FILLER_68_34
*1352 FILLER_68_37
*1353 FILLER_69_10
*1354 FILLER_69_111
*1355 FILLER_69_12
*1356 FILLER_69_127
*1357 FILLER_69_135
*1358 FILLER_69_139
*1359 FILLER_69_142
*1360 FILLER_69_144
*1361 FILLER_69_159
*1362 FILLER_69_169
*1363 FILLER_69_2
*1364 FILLER_69_207
*1365 FILLER_69_209
*1366 FILLER_69_212
*1367 FILLER_69_27
*1368 FILLER_69_43
*1369 FILLER_69_47
*1370 FILLER_69_63
*1371 FILLER_69_67
*1372 FILLER_69_69
*1373 FILLER_69_72
*1374 FILLER_69_88
*1375 FILLER_69_96
*1376 FILLER_6_101
*1377 FILLER_6_107
*1378 FILLER_6_16
*1379 FILLER_6_171
*1380 FILLER_6_177
*1381 FILLER_6_209
*1382 FILLER_6_32
*1383 FILLER_6_34
*1384 FILLER_6_37
*1385 FILLER_70_101
*1386 FILLER_70_104
*1387 FILLER_70_106
*1388 FILLER_70_135
*1389 FILLER_70_152
*1390 FILLER_70_16
*1391 FILLER_70_200
*1392 FILLER_70_234
*1393 FILLER_70_240
*1394 FILLER_70_36
*1395 FILLER_70_51
*1396 FILLER_70_53
*1397 FILLER_70_70
*1398 FILLER_70_8
*1399 FILLER_70_99
*1400 FILLER_7_136
*1401 FILLER_7_142
*1402 FILLER_7_16
*1403 FILLER_7_206
*1404 FILLER_7_212
*1405 FILLER_7_220
*1406 FILLER_7_224
*1407 FILLER_7_48
*1408 FILLER_7_64
*1409 FILLER_7_68
*1410 FILLER_7_72
*1411 FILLER_8_10
*1412 FILLER_8_103
*1413 FILLER_8_107
*1414 FILLER_8_171
*1415 FILLER_8_177
*1416 FILLER_8_209
*1417 FILLER_8_225
*1418 FILLER_8_26
*1419 FILLER_8_34
*1420 FILLER_8_37
*1421 FILLER_8_69
*1422 FILLER_8_77
*1423 FILLER_8_81
*1424 FILLER_8_99
*1425 FILLER_9_10
*1426 FILLER_9_130
*1427 FILLER_9_138
*1428 FILLER_9_142
*1429 FILLER_9_206
*1430 FILLER_9_212
*1431 FILLER_9_220
*1432 FILLER_9_224
*1433 FILLER_9_42
*1434 FILLER_9_58
*1435 FILLER_9_72
*1436 FILLER_9_76
*1437 FILLER_9_98
*1438 PHY_EDGE_ROW_0_Left_71
*1439 PHY_EDGE_ROW_0_Right_0
*1440 PHY_EDGE_ROW_10_Left_81
*1441 PHY_EDGE_ROW_10_Right_10
*1442 PHY_EDGE_ROW_11_Left_82
*1443 PHY_EDGE_ROW_11_Right_11
*1444 PHY_EDGE_ROW_12_Left_83
*1445 PHY_EDGE_ROW_12_Right_12
*1446 PHY_EDGE_ROW_13_Left_84
*1447 PHY_EDGE_ROW_13_Right_13
*1448 PHY_EDGE_ROW_14_Left_85
*1449 PHY_EDGE_ROW_14_Right_14
*1450 PHY_EDGE_ROW_15_Left_86
*1451 PHY_EDGE_ROW_15_Right_15
*1452 PHY_EDGE_ROW_16_Left_87
*1453 PHY_EDGE_ROW_16_Right_16
*1454 PHY_EDGE_ROW_17_Left_88
*1455 PHY_EDGE_ROW_17_Right_17
*1456 PHY_EDGE_ROW_18_Left_89
*1457 PHY_EDGE_ROW_18_Right_18
*1458 PHY_EDGE_ROW_19_Left_90
*1459 PHY_EDGE_ROW_19_Right_19
*1460 PHY_EDGE_ROW_1_Left_72
*1461 PHY_EDGE_ROW_1_Right_1
*1462 PHY_EDGE_ROW_20_Left_91
*1463 PHY_EDGE_ROW_20_Right_20
*1464 PHY_EDGE_ROW_21_Left_92