* NGSPICE file created from DSP.ext - technology: gf180mcuD

* Black-box entry subcircuit for gf180mcu_fd_sc_mcu7t5v0__clkbuf_16 abstract view
.subckt gf180mcu_fd_sc_mcu7t5v0__clkbuf_16 I Z VDD VNW VPW VSS
.ends

* Black-box entry subcircuit for gf180mcu_fd_sc_mcu7t5v0__clkinv_1 abstract view
.subckt gf180mcu_fd_sc_mcu7t5v0__clkinv_1 I ZN VDD VNW VPW VSS
.ends

* Black-box entry subcircuit for gf180mcu_fd_sc_mcu7t5v0__fillcap_4 abstract view
.subckt gf180mcu_fd_sc_mcu7t5v0__fillcap_4 VDD VNW VPW VSS
.ends

* Black-box entry subcircuit for gf180mcu_fd_sc_mcu7t5v0__filltie abstract view
.subckt gf180mcu_fd_sc_mcu7t5v0__filltie VDD VSS
.ends

* Black-box entry subcircuit for gf180mcu_fd_sc_mcu7t5v0__and2_1 abstract view
.subckt gf180mcu_fd_sc_mcu7t5v0__and2_1 A1 A2 Z VDD VNW VPW VSS
.ends

* Black-box entry subcircuit for gf180mcu_fd_sc_mcu7t5v0__fillcap_8 abstract view
.subckt gf180mcu_fd_sc_mcu7t5v0__fillcap_8 VDD VNW VPW VSS
.ends

* Black-box entry subcircuit for gf180mcu_fd_sc_mcu7t5v0__fill_2 abstract view
.subckt gf180mcu_fd_sc_mcu7t5v0__fill_2 VDD VNW VPW VSS
.ends

* Black-box entry subcircuit for gf180mcu_fd_sc_mcu7t5v0__nor2_1 abstract view
.subckt gf180mcu_fd_sc_mcu7t5v0__nor2_1 A1 A2 ZN VDD VNW VPW VSS
.ends

* Black-box entry subcircuit for gf180mcu_fd_sc_mcu7t5v0__buf_1 abstract view
.subckt gf180mcu_fd_sc_mcu7t5v0__buf_1 I Z VDD VNW VPW VSS
.ends

* Black-box entry subcircuit for gf180mcu_fd_sc_mcu7t5v0__fill_1 abstract view
.subckt gf180mcu_fd_sc_mcu7t5v0__fill_1 VDD VNW VPW VSS
.ends

* Black-box entry subcircuit for gf180mcu_fd_sc_mcu7t5v0__nand2_1 abstract view
.subckt gf180mcu_fd_sc_mcu7t5v0__nand2_1 A1 A2 ZN VDD VNW VPW VSS
.ends

* Black-box entry subcircuit for gf180mcu_fd_sc_mcu7t5v0__endcap abstract view
.subckt gf180mcu_fd_sc_mcu7t5v0__endcap VDD VSS
.ends

* Black-box entry subcircuit for gf180mcu_fd_sc_mcu7t5v0__latq_1 abstract view
.subckt gf180mcu_fd_sc_mcu7t5v0__latq_1 D E Q VDD VNW VPW VSS
.ends

* Black-box entry subcircuit for gf180mcu_fd_sc_mcu7t5v0__aoi21_1 abstract view
.subckt gf180mcu_fd_sc_mcu7t5v0__aoi21_1 A1 A2 B ZN VDD VNW VPW VSS
.ends

* Black-box entry subcircuit for gf180mcu_fd_sc_mcu7t5v0__fillcap_16 abstract view
.subckt gf180mcu_fd_sc_mcu7t5v0__fillcap_16 VDD VNW VPW VSS
.ends

* Black-box entry subcircuit for gf180mcu_fd_sc_mcu7t5v0__mux4_1 abstract view
.subckt gf180mcu_fd_sc_mcu7t5v0__mux4_1 I0 I1 I2 I3 S0 S1 Z VDD VNW VPW VSS
.ends

* Black-box entry subcircuit for gf180mcu_fd_sc_mcu7t5v0__mux2_2 abstract view
.subckt gf180mcu_fd_sc_mcu7t5v0__mux2_2 I0 I1 S Z VDD VNW VPW VSS
.ends

* Black-box entry subcircuit for gf180mcu_fd_sc_mcu7t5v0__oai21_1 abstract view
.subckt gf180mcu_fd_sc_mcu7t5v0__oai21_1 A1 A2 B ZN VDD VNW VPW VSS
.ends

* Black-box entry subcircuit for gf180mcu_fd_sc_mcu7t5v0__or2_1 abstract view
.subckt gf180mcu_fd_sc_mcu7t5v0__or2_1 A1 A2 Z VDD VNW VPW VSS
.ends

* Black-box entry subcircuit for gf180mcu_fd_sc_mcu7t5v0__oai211_1 abstract view
.subckt gf180mcu_fd_sc_mcu7t5v0__oai211_1 A1 A2 B C ZN VDD VNW VPW VSS
.ends

* Black-box entry subcircuit for gf180mcu_fd_sc_mcu7t5v0__dffq_1 abstract view
.subckt gf180mcu_fd_sc_mcu7t5v0__dffq_1 D CLK Q VDD VNW VPW VSS
.ends

* Black-box entry subcircuit for gf180mcu_fd_sc_mcu7t5v0__fillcap_32 abstract view
.subckt gf180mcu_fd_sc_mcu7t5v0__fillcap_32 VDD VNW VPW VSS
.ends

* Black-box entry subcircuit for gf180mcu_fd_sc_mcu7t5v0__nor3_1 abstract view
.subckt gf180mcu_fd_sc_mcu7t5v0__nor3_1 A1 A2 A3 ZN VDD VNW VPW VSS
.ends

* Black-box entry subcircuit for gf180mcu_fd_sc_mcu7t5v0__nand3_1 abstract view
.subckt gf180mcu_fd_sc_mcu7t5v0__nand3_1 A1 A2 A3 ZN VDD VNW VPW VSS
.ends

* Black-box entry subcircuit for gf180mcu_fd_sc_mcu7t5v0__or3_1 abstract view
.subckt gf180mcu_fd_sc_mcu7t5v0__or3_1 A1 A2 A3 Z VDD VNW VPW VSS
.ends

* Black-box entry subcircuit for gf180mcu_fd_sc_mcu7t5v0__aoi211_1 abstract view
.subckt gf180mcu_fd_sc_mcu7t5v0__aoi211_1 A1 A2 B C ZN VDD VNW VPW VSS
.ends

* Black-box entry subcircuit for gf180mcu_fd_sc_mcu7t5v0__antenna abstract view
.subckt gf180mcu_fd_sc_mcu7t5v0__antenna I VDD VNW VPW VSS
.ends

* Black-box entry subcircuit for gf180mcu_fd_sc_mcu7t5v0__xor2_1 abstract view
.subckt gf180mcu_fd_sc_mcu7t5v0__xor2_1 A1 A2 Z VDD VNW VPW VSS
.ends

* Black-box entry subcircuit for gf180mcu_fd_sc_mcu7t5v0__oai221_1 abstract view
.subckt gf180mcu_fd_sc_mcu7t5v0__oai221_1 A1 A2 B1 B2 C ZN VDD VNW VPW VSS
.ends

* Black-box entry subcircuit for gf180mcu_fd_sc_mcu7t5v0__aoi22_1 abstract view
.subckt gf180mcu_fd_sc_mcu7t5v0__aoi22_1 A1 A2 B1 B2 ZN VDD VNW VPW VSS
.ends

* Black-box entry subcircuit for gf180mcu_fd_sc_mcu7t5v0__oai32_1 abstract view
.subckt gf180mcu_fd_sc_mcu7t5v0__oai32_1 A1 A2 A3 B1 B2 ZN VDD VNW VPW VSS
.ends

* Black-box entry subcircuit for gf180mcu_fd_sc_mcu7t5v0__xnor2_1 abstract view
.subckt gf180mcu_fd_sc_mcu7t5v0__xnor2_1 A1 A2 ZN VDD VNW VPW VSS
.ends

* Black-box entry subcircuit for gf180mcu_fd_sc_mcu7t5v0__oai31_1 abstract view
.subckt gf180mcu_fd_sc_mcu7t5v0__oai31_1 A1 A2 A3 B ZN VDD VNW VPW VSS
.ends

* Black-box entry subcircuit for gf180mcu_fd_sc_mcu7t5v0__xor3_1 abstract view
.subckt gf180mcu_fd_sc_mcu7t5v0__xor3_1 A1 A2 A3 Z VDD VNW VPW VSS
.ends

* Black-box entry subcircuit for gf180mcu_fd_sc_mcu7t5v0__and3_1 abstract view
.subckt gf180mcu_fd_sc_mcu7t5v0__and3_1 A1 A2 A3 Z VDD VNW VPW VSS
.ends

* Black-box entry subcircuit for gf180mcu_fd_sc_mcu7t5v0__xnor3_1 abstract view
.subckt gf180mcu_fd_sc_mcu7t5v0__xnor3_1 A1 A2 A3 ZN VDD VNW VPW VSS
.ends

* Black-box entry subcircuit for gf180mcu_fd_sc_mcu7t5v0__inv_3 abstract view
.subckt gf180mcu_fd_sc_mcu7t5v0__inv_3 I ZN VDD VNW VPW VSS
.ends

* Black-box entry subcircuit for gf180mcu_fd_sc_mcu7t5v0__oai22_1 abstract view
.subckt gf180mcu_fd_sc_mcu7t5v0__oai22_1 A1 A2 B1 B2 ZN VDD VNW VPW VSS
.ends

* Black-box entry subcircuit for gf180mcu_fd_sc_mcu7t5v0__aoi221_1 abstract view
.subckt gf180mcu_fd_sc_mcu7t5v0__aoi221_1 A1 A2 B1 B2 C ZN VDD VNW VPW VSS
.ends

* Black-box entry subcircuit for gf180mcu_fd_sc_mcu7t5v0__nand4_1 abstract view
.subckt gf180mcu_fd_sc_mcu7t5v0__nand4_1 A1 A2 A3 A4 ZN VDD VNW VPW VSS
.ends

* Black-box entry subcircuit for gf180mcu_fd_sc_mcu7t5v0__fillcap_64 abstract view
.subckt gf180mcu_fd_sc_mcu7t5v0__fillcap_64 VDD VNW VPW VSS
.ends

* Black-box entry subcircuit for gf180mcu_fd_sc_mcu7t5v0__nor4_1 abstract view
.subckt gf180mcu_fd_sc_mcu7t5v0__nor4_1 A1 A2 A3 A4 ZN VDD VNW VPW VSS
.ends

* Black-box entry subcircuit for gf180mcu_fd_sc_mcu7t5v0__oai33_1 abstract view
.subckt gf180mcu_fd_sc_mcu7t5v0__oai33_1 A1 A2 A3 B1 B2 B3 ZN VDD VNW VPW VSS
.ends

* Black-box entry subcircuit for gf180mcu_fd_sc_mcu7t5v0__or4_1 abstract view
.subckt gf180mcu_fd_sc_mcu7t5v0__or4_1 A1 A2 A3 A4 Z VDD VNW VPW VSS
.ends

.subckt DSP Tile_X0Y0_E1BEG[0] Tile_X0Y0_E1BEG[1] Tile_X0Y0_E1BEG[2] Tile_X0Y0_E1BEG[3]
+ Tile_X0Y0_E1END[0] Tile_X0Y0_E1END[1] Tile_X0Y0_E1END[2] Tile_X0Y0_E1END[3] Tile_X0Y0_E2BEG[0]
+ Tile_X0Y0_E2BEG[1] Tile_X0Y0_E2BEG[2] Tile_X0Y0_E2BEG[3] Tile_X0Y0_E2BEG[4] Tile_X0Y0_E2BEG[5]
+ Tile_X0Y0_E2BEG[6] Tile_X0Y0_E2BEG[7] Tile_X0Y0_E2BEGb[0] Tile_X0Y0_E2BEGb[1] Tile_X0Y0_E2BEGb[2]
+ Tile_X0Y0_E2BEGb[3] Tile_X0Y0_E2BEGb[4] Tile_X0Y0_E2BEGb[5] Tile_X0Y0_E2BEGb[6]
+ Tile_X0Y0_E2BEGb[7] Tile_X0Y0_E2END[0] Tile_X0Y0_E2END[1] Tile_X0Y0_E2END[2] Tile_X0Y0_E2END[3]
+ Tile_X0Y0_E2END[4] Tile_X0Y0_E2END[5] Tile_X0Y0_E2END[6] Tile_X0Y0_E2END[7] Tile_X0Y0_E2MID[0]
+ Tile_X0Y0_E2MID[1] Tile_X0Y0_E2MID[2] Tile_X0Y0_E2MID[3] Tile_X0Y0_E2MID[4] Tile_X0Y0_E2MID[5]
+ Tile_X0Y0_E2MID[6] Tile_X0Y0_E2MID[7] Tile_X0Y0_E6BEG[0] Tile_X0Y0_E6BEG[10] Tile_X0Y0_E6BEG[11]
+ Tile_X0Y0_E6BEG[1] Tile_X0Y0_E6BEG[2] Tile_X0Y0_E6BEG[3] Tile_X0Y0_E6BEG[4] Tile_X0Y0_E6BEG[5]
+ Tile_X0Y0_E6BEG[6] Tile_X0Y0_E6BEG[7] Tile_X0Y0_E6BEG[8] Tile_X0Y0_E6BEG[9] Tile_X0Y0_E6END[0]
+ Tile_X0Y0_E6END[10] Tile_X0Y0_E6END[11] Tile_X0Y0_E6END[1] Tile_X0Y0_E6END[2] Tile_X0Y0_E6END[3]
+ Tile_X0Y0_E6END[4] Tile_X0Y0_E6END[5] Tile_X0Y0_E6END[6] Tile_X0Y0_E6END[7] Tile_X0Y0_E6END[8]
+ Tile_X0Y0_E6END[9] Tile_X0Y0_EE4BEG[0] Tile_X0Y0_EE4BEG[10] Tile_X0Y0_EE4BEG[11]
+ Tile_X0Y0_EE4BEG[12] Tile_X0Y0_EE4BEG[13] Tile_X0Y0_EE4BEG[14] Tile_X0Y0_EE4BEG[15]
+ Tile_X0Y0_EE4BEG[1] Tile_X0Y0_EE4BEG[2] Tile_X0Y0_EE4BEG[3] Tile_X0Y0_EE4BEG[4]
+ Tile_X0Y0_EE4BEG[5] Tile_X0Y0_EE4BEG[6] Tile_X0Y0_EE4BEG[7] Tile_X0Y0_EE4BEG[8]
+ Tile_X0Y0_EE4BEG[9] Tile_X0Y0_EE4END[0] Tile_X0Y0_EE4END[10] Tile_X0Y0_EE4END[11]
+ Tile_X0Y0_EE4END[12] Tile_X0Y0_EE4END[13] Tile_X0Y0_EE4END[14] Tile_X0Y0_EE4END[15]
+ Tile_X0Y0_EE4END[1] Tile_X0Y0_EE4END[2] Tile_X0Y0_EE4END[3] Tile_X0Y0_EE4END[4]
+ Tile_X0Y0_EE4END[5] Tile_X0Y0_EE4END[6] Tile_X0Y0_EE4END[7] Tile_X0Y0_EE4END[8]
+ Tile_X0Y0_EE4END[9] Tile_X0Y0_FrameData[0] Tile_X0Y0_FrameData[10] Tile_X0Y0_FrameData[11]
+ Tile_X0Y0_FrameData[12] Tile_X0Y0_FrameData[13] Tile_X0Y0_FrameData[14] Tile_X0Y0_FrameData[15]
+ Tile_X0Y0_FrameData[16] Tile_X0Y0_FrameData[17] Tile_X0Y0_FrameData[18] Tile_X0Y0_FrameData[19]
+ Tile_X0Y0_FrameData[1] Tile_X0Y0_FrameData[20] Tile_X0Y0_FrameData[21] Tile_X0Y0_FrameData[22]
+ Tile_X0Y0_FrameData[23] Tile_X0Y0_FrameData[24] Tile_X0Y0_FrameData[25] Tile_X0Y0_FrameData[26]
+ Tile_X0Y0_FrameData[27] Tile_X0Y0_FrameData[28] Tile_X0Y0_FrameData[29] Tile_X0Y0_FrameData[2]
+ Tile_X0Y0_FrameData[30] Tile_X0Y0_FrameData[31] Tile_X0Y0_FrameData[3] Tile_X0Y0_FrameData[4]
+ Tile_X0Y0_FrameData[5] Tile_X0Y0_FrameData[6] Tile_X0Y0_FrameData[7] Tile_X0Y0_FrameData[8]
+ Tile_X0Y0_FrameData[9] Tile_X0Y0_FrameData_O[0] Tile_X0Y0_FrameData_O[10] Tile_X0Y0_FrameData_O[11]
+ Tile_X0Y0_FrameData_O[12] Tile_X0Y0_FrameData_O[13] Tile_X0Y0_FrameData_O[14] Tile_X0Y0_FrameData_O[15]
+ Tile_X0Y0_FrameData_O[16] Tile_X0Y0_FrameData_O[17] Tile_X0Y0_FrameData_O[18] Tile_X0Y0_FrameData_O[19]
+ Tile_X0Y0_FrameData_O[1] Tile_X0Y0_FrameData_O[20] Tile_X0Y0_FrameData_O[21] Tile_X0Y0_FrameData_O[22]
+ Tile_X0Y0_FrameData_O[23] Tile_X0Y0_FrameData_O[24] Tile_X0Y0_FrameData_O[25] Tile_X0Y0_FrameData_O[26]
+ Tile_X0Y0_FrameData_O[27] Tile_X0Y0_FrameData_O[28] Tile_X0Y0_FrameData_O[29] Tile_X0Y0_FrameData_O[2]
+ Tile_X0Y0_FrameData_O[30] Tile_X0Y0_FrameData_O[31] Tile_X0Y0_FrameData_O[3] Tile_X0Y0_FrameData_O[4]
+ Tile_X0Y0_FrameData_O[5] Tile_X0Y0_FrameData_O[6] Tile_X0Y0_FrameData_O[7] Tile_X0Y0_FrameData_O[8]
+ Tile_X0Y0_FrameData_O[9] Tile_X0Y0_FrameStrobe_O[0] Tile_X0Y0_FrameStrobe_O[10]
+ Tile_X0Y0_FrameStrobe_O[11] Tile_X0Y0_FrameStrobe_O[12] Tile_X0Y0_FrameStrobe_O[13]
+ Tile_X0Y0_FrameStrobe_O[14] Tile_X0Y0_FrameStrobe_O[15] Tile_X0Y0_FrameStrobe_O[16]
+ Tile_X0Y0_FrameStrobe_O[17] Tile_X0Y0_FrameStrobe_O[18] Tile_X0Y0_FrameStrobe_O[19]
+ Tile_X0Y0_FrameStrobe_O[1] Tile_X0Y0_FrameStrobe_O[2] Tile_X0Y0_FrameStrobe_O[3]
+ Tile_X0Y0_FrameStrobe_O[4] Tile_X0Y0_FrameStrobe_O[5] Tile_X0Y0_FrameStrobe_O[6]
+ Tile_X0Y0_FrameStrobe_O[7] Tile_X0Y0_FrameStrobe_O[8] Tile_X0Y0_FrameStrobe_O[9]
+ Tile_X0Y0_N1BEG[0] Tile_X0Y0_N1BEG[1] Tile_X0Y0_N1BEG[2] Tile_X0Y0_N1BEG[3] Tile_X0Y0_N2BEG[0]
+ Tile_X0Y0_N2BEG[1] Tile_X0Y0_N2BEG[2] Tile_X0Y0_N2BEG[3] Tile_X0Y0_N2BEG[4] Tile_X0Y0_N2BEG[5]
+ Tile_X0Y0_N2BEG[6] Tile_X0Y0_N2BEG[7] Tile_X0Y0_N2BEGb[0] Tile_X0Y0_N2BEGb[1] Tile_X0Y0_N2BEGb[2]
+ Tile_X0Y0_N2BEGb[3] Tile_X0Y0_N2BEGb[4] Tile_X0Y0_N2BEGb[5] Tile_X0Y0_N2BEGb[6]
+ Tile_X0Y0_N2BEGb[7] Tile_X0Y0_N4BEG[0] Tile_X0Y0_N4BEG[10] Tile_X0Y0_N4BEG[11] Tile_X0Y0_N4BEG[12]
+ Tile_X0Y0_N4BEG[13] Tile_X0Y0_N4BEG[14] Tile_X0Y0_N4BEG[15] Tile_X0Y0_N4BEG[1] Tile_X0Y0_N4BEG[2]
+ Tile_X0Y0_N4BEG[3] Tile_X0Y0_N4BEG[4] Tile_X0Y0_N4BEG[5] Tile_X0Y0_N4BEG[6] Tile_X0Y0_N4BEG[7]
+ Tile_X0Y0_N4BEG[8] Tile_X0Y0_N4BEG[9] Tile_X0Y0_NN4BEG[0] Tile_X0Y0_NN4BEG[10] Tile_X0Y0_NN4BEG[11]
+ Tile_X0Y0_NN4BEG[12] Tile_X0Y0_NN4BEG[13] Tile_X0Y0_NN4BEG[14] Tile_X0Y0_NN4BEG[15]
+ Tile_X0Y0_NN4BEG[1] Tile_X0Y0_NN4BEG[2] Tile_X0Y0_NN4BEG[3] Tile_X0Y0_NN4BEG[4]
+ Tile_X0Y0_NN4BEG[5] Tile_X0Y0_NN4BEG[6] Tile_X0Y0_NN4BEG[7] Tile_X0Y0_NN4BEG[8]
+ Tile_X0Y0_NN4BEG[9] Tile_X0Y0_S1END[0] Tile_X0Y0_S1END[1] Tile_X0Y0_S1END[2] Tile_X0Y0_S1END[3]
+ Tile_X0Y0_S2END[0] Tile_X0Y0_S2END[1] Tile_X0Y0_S2END[2] Tile_X0Y0_S2END[3] Tile_X0Y0_S2END[4]
+ Tile_X0Y0_S2END[5] Tile_X0Y0_S2END[6] Tile_X0Y0_S2END[7] Tile_X0Y0_S2MID[0] Tile_X0Y0_S2MID[1]
+ Tile_X0Y0_S2MID[2] Tile_X0Y0_S2MID[3] Tile_X0Y0_S2MID[4] Tile_X0Y0_S2MID[5] Tile_X0Y0_S2MID[6]
+ Tile_X0Y0_S2MID[7] Tile_X0Y0_S4END[0] Tile_X0Y0_S4END[10] Tile_X0Y0_S4END[11] Tile_X0Y0_S4END[12]
+ Tile_X0Y0_S4END[13] Tile_X0Y0_S4END[14] Tile_X0Y0_S4END[15] Tile_X0Y0_S4END[1] Tile_X0Y0_S4END[2]
+ Tile_X0Y0_S4END[3] Tile_X0Y0_S4END[4] Tile_X0Y0_S4END[5] Tile_X0Y0_S4END[6] Tile_X0Y0_S4END[7]
+ Tile_X0Y0_S4END[8] Tile_X0Y0_S4END[9] Tile_X0Y0_SS4END[0] Tile_X0Y0_SS4END[10] Tile_X0Y0_SS4END[11]
+ Tile_X0Y0_SS4END[12] Tile_X0Y0_SS4END[13] Tile_X0Y0_SS4END[14] Tile_X0Y0_SS4END[15]
+ Tile_X0Y0_SS4END[1] Tile_X0Y0_SS4END[2] Tile_X0Y0_SS4END[3] Tile_X0Y0_SS4END[4]
+ Tile_X0Y0_SS4END[5] Tile_X0Y0_SS4END[6] Tile_X0Y0_SS4END[7] Tile_X0Y0_SS4END[8]
+ Tile_X0Y0_SS4END[9] Tile_X0Y0_UserCLKo Tile_X0Y0_W1BEG[0] Tile_X0Y0_W1BEG[1] Tile_X0Y0_W1BEG[2]
+ Tile_X0Y0_W1BEG[3] Tile_X0Y0_W1END[0] Tile_X0Y0_W1END[1] Tile_X0Y0_W1END[2] Tile_X0Y0_W1END[3]
+ Tile_X0Y0_W2BEG[0] Tile_X0Y0_W2BEG[1] Tile_X0Y0_W2BEG[2] Tile_X0Y0_W2BEG[3] Tile_X0Y0_W2BEG[4]
+ Tile_X0Y0_W2BEG[5] Tile_X0Y0_W2BEG[6] Tile_X0Y0_W2BEG[7] Tile_X0Y0_W2BEGb[0] Tile_X0Y0_W2BEGb[1]
+ Tile_X0Y0_W2BEGb[2] Tile_X0Y0_W2BEGb[3] Tile_X0Y0_W2BEGb[4] Tile_X0Y0_W2BEGb[5]
+ Tile_X0Y0_W2BEGb[6] Tile_X0Y0_W2BEGb[7] Tile_X0Y0_W2END[0] Tile_X0Y0_W2END[1] Tile_X0Y0_W2END[2]
+ Tile_X0Y0_W2END[3] Tile_X0Y0_W2END[4] Tile_X0Y0_W2END[5] Tile_X0Y0_W2END[6] Tile_X0Y0_W2END[7]
+ Tile_X0Y0_W2MID[0] Tile_X0Y0_W2MID[1] Tile_X0Y0_W2MID[2] Tile_X0Y0_W2MID[3] Tile_X0Y0_W2MID[4]
+ Tile_X0Y0_W2MID[5] Tile_X0Y0_W2MID[6] Tile_X0Y0_W2MID[7] Tile_X0Y0_W6BEG[0] Tile_X0Y0_W6BEG[10]
+ Tile_X0Y0_W6BEG[11] Tile_X0Y0_W6BEG[1] Tile_X0Y0_W6BEG[2] Tile_X0Y0_W6BEG[3] Tile_X0Y0_W6BEG[4]
+ Tile_X0Y0_W6BEG[5] Tile_X0Y0_W6BEG[6] Tile_X0Y0_W6BEG[7] Tile_X0Y0_W6BEG[8] Tile_X0Y0_W6BEG[9]
+ Tile_X0Y0_W6END[0] Tile_X0Y0_W6END[10] Tile_X0Y0_W6END[11] Tile_X0Y0_W6END[1] Tile_X0Y0_W6END[2]
+ Tile_X0Y0_W6END[3] Tile_X0Y0_W6END[4] Tile_X0Y0_W6END[5] Tile_X0Y0_W6END[6] Tile_X0Y0_W6END[7]
+ Tile_X0Y0_W6END[8] Tile_X0Y0_W6END[9] Tile_X0Y0_WW4BEG[0] Tile_X0Y0_WW4BEG[10] Tile_X0Y0_WW4BEG[11]
+ Tile_X0Y0_WW4BEG[12] Tile_X0Y0_WW4BEG[13] Tile_X0Y0_WW4BEG[14] Tile_X0Y0_WW4BEG[15]
+ Tile_X0Y0_WW4BEG[1] Tile_X0Y0_WW4BEG[2] Tile_X0Y0_WW4BEG[3] Tile_X0Y0_WW4BEG[4]
+ Tile_X0Y0_WW4BEG[5] Tile_X0Y0_WW4BEG[6] Tile_X0Y0_WW4BEG[7] Tile_X0Y0_WW4BEG[8]
+ Tile_X0Y0_WW4BEG[9] Tile_X0Y0_WW4END[0] Tile_X0Y0_WW4END[10] Tile_X0Y0_WW4END[11]
+ Tile_X0Y0_WW4END[12] Tile_X0Y0_WW4END[13] Tile_X0Y0_WW4END[14] Tile_X0Y0_WW4END[15]
+ Tile_X0Y0_WW4END[1] Tile_X0Y0_WW4END[2] Tile_X0Y0_WW4END[3] Tile_X0Y0_WW4END[4]
+ Tile_X0Y0_WW4END[5] Tile_X0Y0_WW4END[6] Tile_X0Y0_WW4END[7] Tile_X0Y0_WW4END[8]
+ Tile_X0Y0_WW4END[9] Tile_X0Y1_E1BEG[0] Tile_X0Y1_E1BEG[1] Tile_X0Y1_E1BEG[2] Tile_X0Y1_E1BEG[3]
+ Tile_X0Y1_E1END[0] Tile_X0Y1_E1END[1] Tile_X0Y1_E1END[2] Tile_X0Y1_E1END[3] Tile_X0Y1_E2BEG[0]
+ Tile_X0Y1_E2BEG[1] Tile_X0Y1_E2BEG[2] Tile_X0Y1_E2BEG[3] Tile_X0Y1_E2BEG[4] Tile_X0Y1_E2BEG[5]
+ Tile_X0Y1_E2BEG[6] Tile_X0Y1_E2BEG[7] Tile_X0Y1_E2BEGb[0] Tile_X0Y1_E2BEGb[1] Tile_X0Y1_E2BEGb[2]
+ Tile_X0Y1_E2BEGb[3] Tile_X0Y1_E2BEGb[4] Tile_X0Y1_E2BEGb[5] Tile_X0Y1_E2BEGb[6]
+ Tile_X0Y1_E2BEGb[7] Tile_X0Y1_E2END[0] Tile_X0Y1_E2END[1] Tile_X0Y1_E2END[2] Tile_X0Y1_E2END[3]
+ Tile_X0Y1_E2END[4] Tile_X0Y1_E2END[5] Tile_X0Y1_E2END[6] Tile_X0Y1_E2END[7] Tile_X0Y1_E2MID[0]
+ Tile_X0Y1_E2MID[1] Tile_X0Y1_E2MID[2] Tile_X0Y1_E2MID[3] Tile_X0Y1_E2MID[4] Tile_X0Y1_E2MID[5]
+ Tile_X0Y1_E2MID[6] Tile_X0Y1_E2MID[7] Tile_X0Y1_E6BEG[0] Tile_X0Y1_E6BEG[10] Tile_X0Y1_E6BEG[11]
+ Tile_X0Y1_E6BEG[1] Tile_X0Y1_E6BEG[2] Tile_X0Y1_E6BEG[3] Tile_X0Y1_E6BEG[4] Tile_X0Y1_E6BEG[5]
+ Tile_X0Y1_E6BEG[6] Tile_X0Y1_E6BEG[7] Tile_X0Y1_E6BEG[8] Tile_X0Y1_E6BEG[9] Tile_X0Y1_E6END[0]
+ Tile_X0Y1_E6END[10] Tile_X0Y1_E6END[11] Tile_X0Y1_E6END[1] Tile_X0Y1_E6END[2] Tile_X0Y1_E6END[3]
+ Tile_X0Y1_E6END[4] Tile_X0Y1_E6END[5] Tile_X0Y1_E6END[6] Tile_X0Y1_E6END[7] Tile_X0Y1_E6END[8]
+ Tile_X0Y1_E6END[9] Tile_X0Y1_EE4BEG[0] Tile_X0Y1_EE4BEG[10] Tile_X0Y1_EE4BEG[11]
+ Tile_X0Y1_EE4BEG[12] Tile_X0Y1_EE4BEG[13] Tile_X0Y1_EE4BEG[14] Tile_X0Y1_EE4BEG[15]
+ Tile_X0Y1_EE4BEG[1] Tile_X0Y1_EE4BEG[2] Tile_X0Y1_EE4BEG[3] Tile_X0Y1_EE4BEG[4]
+ Tile_X0Y1_EE4BEG[5] Tile_X0Y1_EE4BEG[6] Tile_X0Y1_EE4BEG[7] Tile_X0Y1_EE4BEG[8]
+ Tile_X0Y1_EE4BEG[9] Tile_X0Y1_EE4END[0] Tile_X0Y1_EE4END[10] Tile_X0Y1_EE4END[11]
+ Tile_X0Y1_EE4END[12] Tile_X0Y1_EE4END[13] Tile_X0Y1_EE4END[14] Tile_X0Y1_EE4END[15]
+ Tile_X0Y1_EE4END[1] Tile_X0Y1_EE4END[2] Tile_X0Y1_EE4END[3] Tile_X0Y1_EE4END[4]
+ Tile_X0Y1_EE4END[5] Tile_X0Y1_EE4END[6] Tile_X0Y1_EE4END[7] Tile_X0Y1_EE4END[8]
+ Tile_X0Y1_EE4END[9] Tile_X0Y1_FrameData[0] Tile_X0Y1_FrameData[10] Tile_X0Y1_FrameData[11]
+ Tile_X0Y1_FrameData[12] Tile_X0Y1_FrameData[13] Tile_X0Y1_FrameData[14] Tile_X0Y1_FrameData[15]
+ Tile_X0Y1_FrameData[16] Tile_X0Y1_FrameData[17] Tile_X0Y1_FrameData[18] Tile_X0Y1_FrameData[19]
+ Tile_X0Y1_FrameData[1] Tile_X0Y1_FrameData[20] Tile_X0Y1_FrameData[21] Tile_X0Y1_FrameData[22]
+ Tile_X0Y1_FrameData[23] Tile_X0Y1_FrameData[24] Tile_X0Y1_FrameData[25] Tile_X0Y1_FrameData[26]
+ Tile_X0Y1_FrameData[27] Tile_X0Y1_FrameData[28] Tile_X0Y1_FrameData[29] Tile_X0Y1_FrameData[2]
+ Tile_X0Y1_FrameData[30] Tile_X0Y1_FrameData[31] Tile_X0Y1_FrameData[3] Tile_X0Y1_FrameData[4]
+ Tile_X0Y1_FrameData[5] Tile_X0Y1_FrameData[6] Tile_X0Y1_FrameData[7] Tile_X0Y1_FrameData[8]
+ Tile_X0Y1_FrameData[9] Tile_X0Y1_FrameData_O[0] Tile_X0Y1_FrameData_O[10] Tile_X0Y1_FrameData_O[11]
+ Tile_X0Y1_FrameData_O[12] Tile_X0Y1_FrameData_O[13] Tile_X0Y1_FrameData_O[14] Tile_X0Y1_FrameData_O[15]
+ Tile_X0Y1_FrameData_O[16] Tile_X0Y1_FrameData_O[17] Tile_X0Y1_FrameData_O[18] Tile_X0Y1_FrameData_O[19]
+ Tile_X0Y1_FrameData_O[1] Tile_X0Y1_FrameData_O[20] Tile_X0Y1_FrameData_O[21] Tile_X0Y1_FrameData_O[22]
+ Tile_X0Y1_FrameData_O[23] Tile_X0Y1_FrameData_O[24] Tile_X0Y1_FrameData_O[25] Tile_X0Y1_FrameData_O[26]
+ Tile_X0Y1_FrameData_O[27] Tile_X0Y1_FrameData_O[28] Tile_X0Y1_FrameData_O[29] Tile_X0Y1_FrameData_O[2]
+ Tile_X0Y1_FrameData_O[30] Tile_X0Y1_FrameData_O[31] Tile_X0Y1_FrameData_O[3] Tile_X0Y1_FrameData_O[4]
+ Tile_X0Y1_FrameData_O[5] Tile_X0Y1_FrameData_O[6] Tile_X0Y1_FrameData_O[7] Tile_X0Y1_FrameData_O[8]
+ Tile_X0Y1_FrameData_O[9] Tile_X0Y1_FrameStrobe[0] Tile_X0Y1_FrameStrobe[10] Tile_X0Y1_FrameStrobe[11]
+ Tile_X0Y1_FrameStrobe[12] Tile_X0Y1_FrameStrobe[13] Tile_X0Y1_FrameStrobe[14] Tile_X0Y1_FrameStrobe[15]
+ Tile_X0Y1_FrameStrobe[16] Tile_X0Y1_FrameStrobe[17] Tile_X0Y1_FrameStrobe[18] Tile_X0Y1_FrameStrobe[19]
+ Tile_X0Y1_FrameStrobe[1] Tile_X0Y1_FrameStrobe[2] Tile_X0Y1_FrameStrobe[3] Tile_X0Y1_FrameStrobe[4]
+ Tile_X0Y1_FrameStrobe[5] Tile_X0Y1_FrameStrobe[6] Tile_X0Y1_FrameStrobe[7] Tile_X0Y1_FrameStrobe[8]
+ Tile_X0Y1_FrameStrobe[9] Tile_X0Y1_N1END[0] Tile_X0Y1_N1END[1] Tile_X0Y1_N1END[2]
+ Tile_X0Y1_N1END[3] Tile_X0Y1_N2END[0] Tile_X0Y1_N2END[1] Tile_X0Y1_N2END[2] Tile_X0Y1_N2END[3]
+ Tile_X0Y1_N2END[4] Tile_X0Y1_N2END[5] Tile_X0Y1_N2END[6] Tile_X0Y1_N2END[7] Tile_X0Y1_N2MID[0]
+ Tile_X0Y1_N2MID[1] Tile_X0Y1_N2MID[2] Tile_X0Y1_N2MID[3] Tile_X0Y1_N2MID[4] Tile_X0Y1_N2MID[5]
+ Tile_X0Y1_N2MID[6] Tile_X0Y1_N2MID[7] Tile_X0Y1_N4END[0] Tile_X0Y1_N4END[10] Tile_X0Y1_N4END[11]
+ Tile_X0Y1_N4END[12] Tile_X0Y1_N4END[13] Tile_X0Y1_N4END[14] Tile_X0Y1_N4END[15]
+ Tile_X0Y1_N4END[1] Tile_X0Y1_N4END[2] Tile_X0Y1_N4END[3] Tile_X0Y1_N4END[4] Tile_X0Y1_N4END[5]
+ Tile_X0Y1_N4END[6] Tile_X0Y1_N4END[7] Tile_X0Y1_N4END[8] Tile_X0Y1_N4END[9] Tile_X0Y1_NN4END[0]
+ Tile_X0Y1_NN4END[10] Tile_X0Y1_NN4END[11] Tile_X0Y1_NN4END[12] Tile_X0Y1_NN4END[13]
+ Tile_X0Y1_NN4END[14] Tile_X0Y1_NN4END[15] Tile_X0Y1_NN4END[1] Tile_X0Y1_NN4END[2]
+ Tile_X0Y1_NN4END[3] Tile_X0Y1_NN4END[4] Tile_X0Y1_NN4END[5] Tile_X0Y1_NN4END[6]
+ Tile_X0Y1_NN4END[7] Tile_X0Y1_NN4END[8] Tile_X0Y1_NN4END[9] Tile_X0Y1_S1BEG[0] Tile_X0Y1_S1BEG[1]
+ Tile_X0Y1_S1BEG[2] Tile_X0Y1_S1BEG[3] Tile_X0Y1_S2BEG[0] Tile_X0Y1_S2BEG[1] Tile_X0Y1_S2BEG[2]
+ Tile_X0Y1_S2BEG[3] Tile_X0Y1_S2BEG[4] Tile_X0Y1_S2BEG[5] Tile_X0Y1_S2BEG[6] Tile_X0Y1_S2BEG[7]
+ Tile_X0Y1_S2BEGb[0] Tile_X0Y1_S2BEGb[1] Tile_X0Y1_S2BEGb[2] Tile_X0Y1_S2BEGb[3]
+ Tile_X0Y1_S2BEGb[4] Tile_X0Y1_S2BEGb[5] Tile_X0Y1_S2BEGb[6] Tile_X0Y1_S2BEGb[7]
+ Tile_X0Y1_S4BEG[0] Tile_X0Y1_S4BEG[10] Tile_X0Y1_S4BEG[11] Tile_X0Y1_S4BEG[12] Tile_X0Y1_S4BEG[13]
+ Tile_X0Y1_S4BEG[14] Tile_X0Y1_S4BEG[15] Tile_X0Y1_S4BEG[1] Tile_X0Y1_S4BEG[2] Tile_X0Y1_S4BEG[3]
+ Tile_X0Y1_S4BEG[4] Tile_X0Y1_S4BEG[5] Tile_X0Y1_S4BEG[6] Tile_X0Y1_S4BEG[7] Tile_X0Y1_S4BEG[8]
+ Tile_X0Y1_S4BEG[9] Tile_X0Y1_SS4BEG[0] Tile_X0Y1_SS4BEG[10] Tile_X0Y1_SS4BEG[11]
+ Tile_X0Y1_SS4BEG[12] Tile_X0Y1_SS4BEG[13] Tile_X0Y1_SS4BEG[14] Tile_X0Y1_SS4BEG[15]
+ Tile_X0Y1_SS4BEG[1] Tile_X0Y1_SS4BEG[2] Tile_X0Y1_SS4BEG[3] Tile_X0Y1_SS4BEG[4]
+ Tile_X0Y1_SS4BEG[5] Tile_X0Y1_SS4BEG[6] Tile_X0Y1_SS4BEG[7] Tile_X0Y1_SS4BEG[8]
+ Tile_X0Y1_SS4BEG[9] Tile_X0Y1_UserCLK Tile_X0Y1_W1BEG[0] Tile_X0Y1_W1BEG[1] Tile_X0Y1_W1BEG[2]
+ Tile_X0Y1_W1BEG[3] Tile_X0Y1_W1END[0] Tile_X0Y1_W1END[1] Tile_X0Y1_W1END[2] Tile_X0Y1_W1END[3]
+ Tile_X0Y1_W2BEG[0] Tile_X0Y1_W2BEG[1] Tile_X0Y1_W2BEG[2] Tile_X0Y1_W2BEG[3] Tile_X0Y1_W2BEG[4]
+ Tile_X0Y1_W2BEG[5] Tile_X0Y1_W2BEG[6] Tile_X0Y1_W2BEG[7] Tile_X0Y1_W2BEGb[0] Tile_X0Y1_W2BEGb[1]
+ Tile_X0Y1_W2BEGb[2] Tile_X0Y1_W2BEGb[3] Tile_X0Y1_W2BEGb[4] Tile_X0Y1_W2BEGb[5]
+ Tile_X0Y1_W2BEGb[6] Tile_X0Y1_W2BEGb[7] Tile_X0Y1_W2END[0] Tile_X0Y1_W2END[1] Tile_X0Y1_W2END[2]
+ Tile_X0Y1_W2END[3] Tile_X0Y1_W2END[4] Tile_X0Y1_W2END[5] Tile_X0Y1_W2END[6] Tile_X0Y1_W2END[7]
+ Tile_X0Y1_W2MID[0] Tile_X0Y1_W2MID[1] Tile_X0Y1_W2MID[2] Tile_X0Y1_W2MID[3] Tile_X0Y1_W2MID[4]
+ Tile_X0Y1_W2MID[5] Tile_X0Y1_W2MID[6] Tile_X0Y1_W2MID[7] Tile_X0Y1_W6BEG[0] Tile_X0Y1_W6BEG[10]
+ Tile_X0Y1_W6BEG[11] Tile_X0Y1_W6BEG[1] Tile_X0Y1_W6BEG[2] Tile_X0Y1_W6BEG[3] Tile_X0Y1_W6BEG[4]
+ Tile_X0Y1_W6BEG[5] Tile_X0Y1_W6BEG[6] Tile_X0Y1_W6BEG[7] Tile_X0Y1_W6BEG[8] Tile_X0Y1_W6BEG[9]
+ Tile_X0Y1_W6END[0] Tile_X0Y1_W6END[10] Tile_X0Y1_W6END[11] Tile_X0Y1_W6END[1] Tile_X0Y1_W6END[2]
+ Tile_X0Y1_W6END[3] Tile_X0Y1_W6END[4] Tile_X0Y1_W6END[5] Tile_X0Y1_W6END[6] Tile_X0Y1_W6END[7]
+ Tile_X0Y1_W6END[8] Tile_X0Y1_W6END[9] Tile_X0Y1_WW4BEG[0] Tile_X0Y1_WW4BEG[10] Tile_X0Y1_WW4BEG[11]
+ Tile_X0Y1_WW4BEG[12] Tile_X0Y1_WW4BEG[13] Tile_X0Y1_WW4BEG[14] Tile_X0Y1_WW4BEG[15]
+ Tile_X0Y1_WW4BEG[1] Tile_X0Y1_WW4BEG[2] Tile_X0Y1_WW4BEG[3] Tile_X0Y1_WW4BEG[4]
+ Tile_X0Y1_WW4BEG[5] Tile_X0Y1_WW4BEG[6] Tile_X0Y1_WW4BEG[7] Tile_X0Y1_WW4BEG[8]
+ Tile_X0Y1_WW4BEG[9] Tile_X0Y1_WW4END[0] Tile_X0Y1_WW4END[10] Tile_X0Y1_WW4END[11]
+ Tile_X0Y1_WW4END[12] Tile_X0Y1_WW4END[13] Tile_X0Y1_WW4END[14] Tile_X0Y1_WW4END[15]
+ Tile_X0Y1_WW4END[1] Tile_X0Y1_WW4END[2] Tile_X0Y1_WW4END[3] Tile_X0Y1_WW4END[4]
+ Tile_X0Y1_WW4END[5] Tile_X0Y1_WW4END[6] Tile_X0Y1_WW4END[7] Tile_X0Y1_WW4END[8]
+ Tile_X0Y1_WW4END[9] VDD VSS
Xclkbuf_2_2__f_Tile_X0Y1_UserCLK_regs clknet_0_Tile_X0Y1_UserCLK_regs clknet_2_2__leaf_Tile_X0Y1_UserCLK_regs
+ VDD VDD VSS VSS gf180mcu_fd_sc_mcu7t5v0__clkbuf_16
X_3155_ _1459_ _1460_ VDD VDD VSS VSS gf180mcu_fd_sc_mcu7t5v0__clkinv_1
XFILLER_39_255 VDD VDD VSS VSS gf180mcu_fd_sc_mcu7t5v0__fillcap_4
XTAP_TAPCELL_ROW_65_721 VDD VSS gf180mcu_fd_sc_mcu7t5v0__filltie
X_3086_ _1390_ _1394_ _1396_ VDD VDD VSS VSS gf180mcu_fd_sc_mcu7t5v0__and2_1
XFILLER_54_247 VDD VDD VSS VSS gf180mcu_fd_sc_mcu7t5v0__fillcap_8
XFILLER_50_453 VDD VDD VSS VSS gf180mcu_fd_sc_mcu7t5v0__fill_2
X_3988_ _0199_ _2171_ _2172_ VDD VDD VSS VSS gf180mcu_fd_sc_mcu7t5v0__nor2_1
X_5727_ Tile_X0Y1_N4END[9] net128 VDD VDD VSS VSS gf180mcu_fd_sc_mcu7t5v0__buf_1
XFILLER_22_177 VDD VDD VSS VSS gf180mcu_fd_sc_mcu7t5v0__fill_1
X_2939_ _1218_ _1248_ _1249_ VDD VDD VSS VSS gf180mcu_fd_sc_mcu7t5v0__nand2_1
XPHY_EDGE_ROW_99_Left_243 VDD VSS gf180mcu_fd_sc_mcu7t5v0__endcap
X_5658_ Tile_X0Y0_FrameData[4] net75 VDD VDD VSS VSS gf180mcu_fd_sc_mcu7t5v0__buf_1
X_5589_ Tile_X0Y1_FrameData[16] Tile_X0Y1_FrameStrobe[12] Tile_X0Y1_DSP_bot.Inst_DSP_bot_ConfigMem.Inst_frame12_bit16.Q
+ VDD VDD VSS VSS gf180mcu_fd_sc_mcu7t5v0__latq_1
X_4609_ _0491_ _0493_ _0497_ _0498_ VDD VDD VSS VSS gf180mcu_fd_sc_mcu7t5v0__aoi21_1
XTAP_TAPCELL_ROW_112_1024 VDD VSS gf180mcu_fd_sc_mcu7t5v0__filltie
XFILLER_104_400 VDD VDD VSS VSS gf180mcu_fd_sc_mcu7t5v0__fill_2
XFILLER_131_274 VDD VDD VSS VSS gf180mcu_fd_sc_mcu7t5v0__fill_1
XTAP_TAPCELL_ROW_5_332 VDD VSS gf180mcu_fd_sc_mcu7t5v0__filltie
XTAP_TAPCELL_ROW_88_868 VDD VSS gf180mcu_fd_sc_mcu7t5v0__filltie
XFILLER_92_309 VDD VDD VSS VSS gf180mcu_fd_sc_mcu7t5v0__fill_2
XFILLER_18_428 VDD VDD VSS VSS gf180mcu_fd_sc_mcu7t5v0__fill_2
XTAP_TAPCELL_ROW_28_478 VDD VSS gf180mcu_fd_sc_mcu7t5v0__filltie
XTAP_TAPCELL_ROW_71_757 VDD VSS gf180mcu_fd_sc_mcu7t5v0__filltie
XTAP_TAPCELL_ROW_11_367 VDD VSS gf180mcu_fd_sc_mcu7t5v0__filltie
XFILLER_107_282 VDD VDD VSS VSS gf180mcu_fd_sc_mcu7t5v0__fill_2
XFILLER_5_398 VDD VDD VSS VSS gf180mcu_fd_sc_mcu7t5v0__fillcap_16
XTAP_TAPCELL_ROW_79_813 VDD VSS gf180mcu_fd_sc_mcu7t5v0__filltie
XFILLER_95_136 VDD VDD VSS VSS gf180mcu_fd_sc_mcu7t5v0__fillcap_4
XTAP_TAPCELL_ROW_19_423 VDD VSS gf180mcu_fd_sc_mcu7t5v0__filltie
XFILLER_91_320 VDD VDD VSS VSS gf180mcu_fd_sc_mcu7t5v0__fillcap_4
XFILLER_36_247 VDD VDD VSS VSS gf180mcu_fd_sc_mcu7t5v0__fillcap_4
XTAP_TAPCELL_ROW_62_702 VDD VSS gf180mcu_fd_sc_mcu7t5v0__filltie
X_4960_ Tile_X0Y0_FrameData[23] Tile_X0Y1_FrameStrobe[7] Tile_X0Y0_DSP_top.Inst_DSP_top_ConfigMem.Inst_frame7_bit23.Q
+ VDD VDD VSS VSS gf180mcu_fd_sc_mcu7t5v0__latq_1
X_4891_ Tile_X0Y0_FrameData[28] Tile_X0Y1_FrameStrobe[5] Tile_X0Y0_DSP_top.Inst_DSP_top_ConfigMem.Inst_frame5_bit28.Q
+ VDD VDD VSS VSS gf180mcu_fd_sc_mcu7t5v0__latq_1
X_3911_ Tile_X0Y0_S2MID[0] Tile_X0Y0_S4END[7] Tile_X0Y1_W6END[1] Tile_X0Y1_DSP_bot.Inst_DSP_bot_switch_matrix.Q2
+ Tile_X0Y1_DSP_bot.Inst_DSP_bot_ConfigMem.Inst_frame10_bit10.Q Tile_X0Y1_DSP_bot.Inst_DSP_bot_ConfigMem.Inst_frame10_bit11.Q
+ Tile_X0Y1_DSP_bot.Inst_DSP_bot_switch_matrix.S4BEG2 VDD VDD VSS VSS gf180mcu_fd_sc_mcu7t5v0__mux4_1
X_3842_ _2062_ _2061_ Tile_X0Y0_DSP_top.Inst_DSP_top_ConfigMem.Inst_frame9_bit8.Q
+ Tile_X0Y0_DSP_top.Inst_DSP_top_switch_matrix.WW4BEG0 VDD VDD VSS VSS gf180mcu_fd_sc_mcu7t5v0__mux2_2
X_3773_ Tile_X0Y0_DSP_top.Inst_DSP_top_switch_matrix.N1END2 Tile_X0Y0_S1END[2] Tile_X0Y0_E1END[2]
+ Tile_X0Y0_DSP_top.Inst_DSP_top_switch_matrix.bot2top2 Tile_X0Y0_DSP_top.Inst_DSP_top_ConfigMem.Inst_frame11_bit15.Q
+ Tile_X0Y0_DSP_top.Inst_DSP_top_ConfigMem.Inst_frame11_bit14.Q _2004_ VDD VDD VSS
+ VSS gf180mcu_fd_sc_mcu7t5v0__mux4_1
X_5512_ Tile_X0Y1_FrameData[29] Tile_X0Y1_FrameStrobe[10] Tile_X0Y1_DSP_bot.Inst_DSP_bot_ConfigMem.Inst_frame10_bit29.Q
+ VDD VDD VSS VSS gf180mcu_fd_sc_mcu7t5v0__latq_1
X_2724_ Tile_X0Y1_DSP_bot.Inst_DSP_bot_ConfigMem.Inst_frame2_bit10.Q _1040_ _1041_
+ VDD VDD VSS VSS gf180mcu_fd_sc_mcu7t5v0__nor2_1
XFILLER_105_208 VDD VDD VSS VSS gf180mcu_fd_sc_mcu7t5v0__fill_2
X_5443_ Tile_X0Y1_FrameData[2] Tile_X0Y1_FrameStrobe[7] Tile_X0Y1_DSP_bot.Inst_DSP_bot_ConfigMem.Inst_frame7_bit2.Q
+ VDD VDD VSS VSS gf180mcu_fd_sc_mcu7t5v0__latq_1
X_2655_ _0142_ _0974_ _0975_ VDD VDD VSS VSS gf180mcu_fd_sc_mcu7t5v0__nand2_1
X_5374_ Tile_X0Y1_FrameData[7] Tile_X0Y1_FrameStrobe[5] Tile_X0Y1_DSP_bot.Inst_DSP_bot_ConfigMem.Inst_frame5_bit7.Q
+ VDD VDD VSS VSS gf180mcu_fd_sc_mcu7t5v0__latq_1
X_4325_ Tile_X0Y1_N1END[1] Tile_X0Y1_N2END[3] Tile_X0Y1_N4END[3] Tile_X0Y1_E2END[3]
+ Tile_X0Y1_DSP_bot.Inst_DSP_bot_ConfigMem.Inst_frame3_bit8.Q Tile_X0Y1_DSP_bot.Inst_DSP_bot_ConfigMem.Inst_frame3_bit9.Q
+ _0229_ VDD VDD VSS VSS gf180mcu_fd_sc_mcu7t5v0__mux4_1
X_2586_ _0883_ _0907_ _0908_ VDD VDD VSS VSS gf180mcu_fd_sc_mcu7t5v0__nor2_1
XFILLER_86_114 VDD VDD VSS VSS gf180mcu_fd_sc_mcu7t5v0__fillcap_4
X_4256_ Tile_X0Y1_DSP_bot.Inst_DSP_bot_ConfigMem.Inst_frame9_bit31.Q _0160_ VDD VDD
+ VSS VSS gf180mcu_fd_sc_mcu7t5v0__clkinv_1
X_4187_ Tile_X0Y0_DSP_top.Inst_DSP_top_ConfigMem.Inst_frame4_bit10.Q _0091_ VDD VDD
+ VSS VSS gf180mcu_fd_sc_mcu7t5v0__clkinv_1
XTAP_TAPCELL_ROW_2_313 VDD VSS gf180mcu_fd_sc_mcu7t5v0__filltie
X_3207_ Tile_X0Y1_DSP_bot.Inst_DSP_bot_ConfigMem.Inst_frame1_bit21.Q _1507_ _1508_
+ VDD VDD VSS VSS gf180mcu_fd_sc_mcu7t5v0__nand2_1
X_3138_ _1443_ _1429_ Tile_X0Y0_DSP_top.Inst_DSP_top_ConfigMem.Inst_frame8_bit12.Q
+ _1444_ VDD VDD VSS VSS gf180mcu_fd_sc_mcu7t5v0__mux2_2
XTAP_TAPCELL_ROW_85_849 VDD VSS gf180mcu_fd_sc_mcu7t5v0__filltie
X_3069_ _1089_ _1378_ _1088_ _1379_ VDD VDD VSS VSS gf180mcu_fd_sc_mcu7t5v0__oai21_1
XTAP_TAPCELL_ROW_25_459 VDD VSS gf180mcu_fd_sc_mcu7t5v0__filltie
XFILLER_50_283 VDD VDD VSS VSS gf180mcu_fd_sc_mcu7t5v0__fillcap_8
XFILLER_6_107 VDD VDD VSS VSS gf180mcu_fd_sc_mcu7t5v0__fillcap_16
XFILLER_136_311 VDD VDD VSS VSS gf180mcu_fd_sc_mcu7t5v0__fillcap_4
XFILLER_128_10 VDD VDD VSS VSS gf180mcu_fd_sc_mcu7t5v0__fillcap_4
XFILLER_104_285 VDD VDD VSS VSS gf180mcu_fd_sc_mcu7t5v0__fill_2
XTAP_TAPCELL_ROW_16_404 VDD VSS gf180mcu_fd_sc_mcu7t5v0__filltie
XFILLER_33_228 VDD VDD VSS VSS gf180mcu_fd_sc_mcu7t5v0__fill_2
XFILLER_53_72 VDD VDD VSS VSS gf180mcu_fd_sc_mcu7t5v0__fillcap_8
XFILLER_127_366 VDD VDD VSS VSS gf180mcu_fd_sc_mcu7t5v0__fill_1
XFILLER_142_314 VDD VDD VSS VSS gf180mcu_fd_sc_mcu7t5v0__fill_1
XFILLER_5_162 VDD VDD VSS VSS gf180mcu_fd_sc_mcu7t5v0__fillcap_8
X_2440_ _0751_ _0772_ _0773_ VDD VDD VSS VSS gf180mcu_fd_sc_mcu7t5v0__and2_1
XFILLER_142_358 VDD VDD VSS VSS gf180mcu_fd_sc_mcu7t5v0__fill_1
X_2371_ Tile_X0Y1_DSP_bot.Inst_DSP_bot_ConfigMem.Inst_frame8_bit5.Q _0707_ _0708_
+ VDD VDD VSS VSS gf180mcu_fd_sc_mcu7t5v0__nor2_1
X_5090_ Tile_X0Y0_FrameData[21] Tile_X0Y1_FrameStrobe[11] Tile_X0Y0_DSP_top.Inst_DSP_top_ConfigMem.Inst_frame11_bit21.Q
+ VDD VDD VSS VSS gf180mcu_fd_sc_mcu7t5v0__latq_1
XFILLER_78_91 VDD VDD VSS VSS gf180mcu_fd_sc_mcu7t5v0__fillcap_8
X_4110_ Tile_X0Y1_DSP_bot.Inst_DSP_bot_switch_matrix.clr _1781_ _0014_ VDD VDD VSS
+ VSS gf180mcu_fd_sc_mcu7t5v0__nor2_1