*SPEF "ieee 1481-1999"
*DESIGN "S_term_single"
*DATE "22:32:16 Friday December 05, 2025"
*VENDOR "The OpenROAD Project"
*PROGRAM "OpenROAD"
*VERSION "341650e72dad0dc8571822ff8c5d9c5e365327f7"
*DESIGN_FLOW "NAME_SCOPE LOCAL" "PIN_CAP NONE"
*DIVIDER /
*DELIMITER :
*BUS_DELIMITER []
*T_UNIT 1 NS
*C_UNIT 1 PF
*R_UNIT 1 OHM
*L_UNIT 1 HENRY

*NAME_MAP
*1 net106
*2 FrameData[0]
*3 FrameData[10]
*4 FrameData[11]
*5 FrameData[12]
*6 FrameData[13]
*7 FrameData[14]
*8 FrameData[15]
*9 FrameData[16]
*10 FrameData[17]
*11 FrameData[18]
*12 FrameData[19]
*13 FrameData[1]
*14 FrameData[20]
*15 FrameData[21]
*16 FrameData[22]
*17 FrameData[23]
*18 FrameData[24]
*19 FrameData[25]
*20 FrameData[26]
*21 FrameData[27]
*22 FrameData[28]
*23 FrameData[29]
*24 FrameData[2]
*25 FrameData[30]
*26 FrameData[31]
*27 FrameData[3]
*28 FrameData[4]
*29 FrameData[5]
*30 FrameData[6]
*31 FrameData[7]
*32 FrameData[8]
*33 FrameData[9]
*34 FrameData_O[0]
*35 FrameData_O[10]
*36 FrameData_O[11]
*37 FrameData_O[12]
*38 FrameData_O[13]
*39 FrameData_O[14]
*40 FrameData_O[15]
*41 FrameData_O[16]
*42 FrameData_O[17]
*43 FrameData_O[18]
*44 FrameData_O[19]
*45 FrameData_O[1]
*46 FrameData_O[20]
*47 FrameData_O[21]
*48 FrameData_O[22]
*49 FrameData_O[23]
*50 FrameData_O[24]
*51 FrameData_O[25]
*52 FrameData_O[26]
*53 FrameData_O[27]
*54 FrameData_O[28]
*55 FrameData_O[29]
*56 FrameData_O[2]
*57 FrameData_O[30]
*58 FrameData_O[31]
*59 FrameData_O[3]
*60 FrameData_O[4]
*61 FrameData_O[5]
*62 FrameData_O[6]
*63 FrameData_O[7]
*64 FrameData_O[8]
*65 FrameData_O[9]
*66 FrameStrobe[0]
*67 FrameStrobe[10]
*68 FrameStrobe[11]
*69 FrameStrobe[12]
*70 FrameStrobe[13]
*71 FrameStrobe[14]
*72 FrameStrobe[15]
*73 FrameStrobe[16]
*74 FrameStrobe[17]
*75 FrameStrobe[18]
*76 FrameStrobe[19]
*77 FrameStrobe[1]
*78 FrameStrobe[2]
*79 FrameStrobe[3]
*80 FrameStrobe[4]
*81 FrameStrobe[5]
*82 FrameStrobe[6]
*83 FrameStrobe[7]
*84 FrameStrobe[8]
*85 FrameStrobe[9]
*86 FrameStrobe_O[0]
*87 FrameStrobe_O[10]
*88 FrameStrobe_O[11]
*89 FrameStrobe_O[12]
*90 FrameStrobe_O[13]
*91 FrameStrobe_O[14]
*92 FrameStrobe_O[15]
*93 FrameStrobe_O[16]
*94 FrameStrobe_O[17]
*95 FrameStrobe_O[18]
*96 FrameStrobe_O[19]
*97 FrameStrobe_O[1]
*98 FrameStrobe_O[2]
*99 FrameStrobe_O[3]
*100 FrameStrobe_O[4]
*101 FrameStrobe_O[5]
*102 FrameStrobe_O[6]
*103 FrameStrobe_O[7]
*104 FrameStrobe_O[8]
*105 FrameStrobe_O[9]
*106 N1BEG[0]
*107 N1BEG[1]
*108 N1BEG[2]
*109 N1BEG[3]
*110 N2BEG[0]
*111 N2BEG[1]
*112 N2BEG[2]
*113 N2BEG[3]
*114 N2BEG[4]
*115 N2BEG[5]
*116 N2BEG[6]
*117 N2BEG[7]
*118 N2BEGb[0]
*119 N2BEGb[1]
*120 N2BEGb[2]
*121 N2BEGb[3]
*122 N2BEGb[4]
*123 N2BEGb[5]
*124 N2BEGb[6]
*125 N2BEGb[7]
*126 N4BEG[0]
*127 N4BEG[10]
*128 N4BEG[11]
*129 N4BEG[12]
*130 N4BEG[13]
*131 N4BEG[14]
*132 N4BEG[15]
*133 N4BEG[1]
*134 N4BEG[2]
*135 N4BEG[3]
*136 N4BEG[4]
*137 N4BEG[5]
*138 N4BEG[6]
*139 N4BEG[7]
*140 N4BEG[8]
*141 N4BEG[9]
*142 NN4BEG[0]
*143 NN4BEG[10]
*144 NN4BEG[11]
*145 NN4BEG[12]
*146 NN4BEG[13]
*147 NN4BEG[14]
*148 NN4BEG[15]
*149 NN4BEG[1]
*150 NN4BEG[2]
*151 NN4BEG[3]
*152 NN4BEG[4]
*153 NN4BEG[5]
*154 NN4BEG[6]
*155 NN4BEG[7]
*156 NN4BEG[8]
*157 NN4BEG[9]
*158 S1END[0]
*159 S1END[1]
*160 S1END[2]
*161 S1END[3]
*162 S2END[0]
*163 S2END[1]
*164 S2END[2]
*165 S2END[3]
*166 S2END[4]
*167 S2END[5]
*168 S2END[6]
*169 S2END[7]
*170 S2MID[0]
*171 S2MID[1]
*172 S2MID[2]
*173 S2MID[3]
*174 S2MID[4]
*175 S2MID[5]
*176 S2MID[6]
*177 S2MID[7]
*178 S4END[0]
*179 S4END[10]
*180 S4END[11]
*181 S4END[12]
*182 S4END[13]
*183 S4END[14]
*184 S4END[15]
*185 S4END[1]
*186 S4END[2]
*187 S4END[3]
*188 S4END[4]
*189 S4END[5]
*190 S4END[6]
*191 S4END[7]
*192 S4END[8]
*193 S4END[9]
*194 SS4END[0]
*195 SS4END[10]
*196 SS4END[11]
*197 SS4END[12]
*198 SS4END[13]
*199 SS4END[14]
*200 SS4END[15]
*201 SS4END[1]
*202 SS4END[2]
*203 SS4END[3]
*204 SS4END[4]
*205 SS4END[5]
*206 SS4END[6]
*207 SS4END[7]
*208 SS4END[8]
*209 SS4END[9]
*210 UserCLK
*211 UserCLKo
*214 net1
*215 net10
*216 net100
*217 net101
*218 net102
*219 net103
*220 net104
*221 net105
*222 net11
*223 net12
*224 net13
*225 net14
*226 net15
*227 net16
*228 net17
*229 net18
*230 net19
*231 net2
*232 net20
*233 net21
*234 net22
*235 net23
*236 net24
*237 net25
*238 net26
*239 net27
*240 net28
*241 net29
*242 net3
*243 net30
*244 net31
*245 net32
*246 net33
*247 net34
*248 net35
*249 net36
*250 net37
*251 net38
*252 net39
*253 net4
*254 net40
*255 net41
*256 net42
*257 net43
*258 net44
*259 net45
*260 net46
*261 net47
*262 net48
*263 net49
*264 net5
*265 net50
*266 net51
*267 net52
*268 net53
*269 net54
*270 net55
*271 net56
*272 net57
*273 net58
*274 net59
*275 net6
*276 net60
*277 net61
*278 net62
*279 net63
*280 net64
*281 net65
*282 net66
*283 net67
*284 net68
*285 net69
*286 net7
*287 net70
*288 net71
*289 net72
*290 net73
*291 net74
*292 net75
*293 net76
*294 net77
*295 net78
*296 net79
*297 net8
*298 net80
*299 net81
*300 net82
*301 net83
*302 net84
*303 net85
*304 net86
*305 net87
*306 net88
*307 net89
*308 net9
*309 net90
*310 net91
*311 net92
*312 net93
*313 net94
*314 net95
*315 net96
*316 net97
*317 net98
*318 net99
*319 ANTENNA_1
*320 ANTENNA__001__I
*321 ANTENNA__002__I
*322 ANTENNA__003__I
*323 ANTENNA__004__I
*324 ANTENNA__005__I
*325 ANTENNA__006__I
*326 ANTENNA__007__I
*327 ANTENNA__008__I
*328 ANTENNA__009__I
*329 ANTENNA__010__I
*330 ANTENNA__011__I
*331 ANTENNA__012__I
*332 ANTENNA__013__I
*333 ANTENNA__014__I
*334 ANTENNA__015__I
*335 ANTENNA__016__I
*336 ANTENNA__017__I
*337 ANTENNA__018__I
*338 ANTENNA__019__I
*339 ANTENNA__020__I
*340 ANTENNA__021__I
*341 ANTENNA__022__I
*342 ANTENNA__023__I
*343 ANTENNA__024__I
*344 ANTENNA__025__I
*345 ANTENNA__026__I
*346 ANTENNA__027__I
*347 ANTENNA__028__I
*348 ANTENNA__029__I
*349 ANTENNA__030__I
*350 ANTENNA__031__I
*351 ANTENNA__032__I
*352 ANTENNA__033__I
*353 ANTENNA__034__I
*354 ANTENNA__035__I
*355 ANTENNA__036__I
*356 ANTENNA__037__I
*357 ANTENNA__038__I
*358 ANTENNA__039__I
*359 ANTENNA__040__I
*360 ANTENNA__041__I
*361 ANTENNA__042__I
*362 ANTENNA__043__I
*363 ANTENNA__044__I
*364 ANTENNA__045__I
*365 ANTENNA__046__I
*366 ANTENNA__047__I
*367 ANTENNA__048__I
*368 ANTENNA__049__I
*369 ANTENNA__050__I
*370 ANTENNA__051__I
*371 ANTENNA__052__I
*372 ANTENNA__053__I
*373 ANTENNA__054__I
*374 ANTENNA__055__I
*375 ANTENNA__056__I
*376 ANTENNA__057__I
*377 ANTENNA__058__I
*378 ANTENNA__059__I
*379 ANTENNA__060__I
*380 ANTENNA__061__I
*381 ANTENNA__062__I
*382 ANTENNA__063__I
*383 ANTENNA__064__I
*384 ANTENNA__065__I
*385 ANTENNA__066__I
*386 ANTENNA__067__I
*387 ANTENNA__068__I
*388 ANTENNA__069__I
*389 ANTENNA__070__I
*390 ANTENNA__071__I
*391 ANTENNA__072__I
*392 ANTENNA__073__I
*393 ANTENNA__074__I
*394 ANTENNA__075__I
*395 ANTENNA__076__I
*396 ANTENNA__077__I
*397 ANTENNA__078__I
*398 ANTENNA__079__I
*399 ANTENNA__080__I
*400 ANTENNA__081__I
*401 ANTENNA__082__I
*402 ANTENNA__083__I
*403 ANTENNA__084__I
*404 ANTENNA__085__I
*405 ANTENNA__086__I
*406 ANTENNA__087__I
*407 ANTENNA__088__I
*408 ANTENNA__089__I
*409 ANTENNA__090__I
*410 ANTENNA__091__I
*411 ANTENNA__092__I
*412 ANTENNA__093__I
*413 ANTENNA__094__I
*414 ANTENNA__095__I
*415 ANTENNA__096__I
*416 ANTENNA__097__I
*417 ANTENNA__098__I
*418 ANTENNA__099__I
*419 ANTENNA__100__I
*420 ANTENNA__101__I
*421 ANTENNA__102__I
*422 ANTENNA__103__I
*423 ANTENNA__104__I
*424 ANTENNA__105__I
*425 FILLER_0_104
*426 FILLER_0_138
*427 FILLER_0_172
*428 FILLER_0_2
*429 FILLER_0_20
*430 FILLER_0_206
*431 FILLER_0_240
*432 FILLER_0_274
*433 FILLER_0_28
*434 FILLER_0_308
*435 FILLER_0_32
*436 FILLER_0_342
*437 FILLER_0_36
*438 FILLER_0_376
*439 FILLER_0_410
*440 FILLER_0_444
*441 FILLER_0_478
*442 FILLER_0_482
*443 FILLER_0_484
*444 FILLER_0_70
*445 FILLER_10_103
*446 FILLER_10_107
*447 FILLER_10_171
*448 FILLER_10_177
*449 FILLER_10_2
*450 FILLER_10_203
*451 FILLER_10_235
*452 FILLER_10_243
*453 FILLER_10_247
*454 FILLER_10_29
*455 FILLER_10_311
*456 FILLER_10_317
*457 FILLER_10_33
*458 FILLER_10_37
*459 FILLER_10_381
*460 FILLER_10_387
*461 FILLER_10_4
*462 FILLER_10_403
*463 FILLER_10_421
*464 FILLER_10_429
*465 FILLER_10_45
*466 FILLER_10_56
*467 FILLER_10_72
*468 FILLER_10_80
*469 FILLER_10_82
*470 FILLER_10_95
*471 FILLER_11_127
*472 FILLER_11_135
*473 FILLER_11_139
*474 FILLER_11_142
*475 FILLER_11_153
*476 FILLER_11_169
*477 FILLER_11_173
*478 FILLER_11_184
*479 FILLER_11_2
*480 FILLER_11_212
*481 FILLER_11_220
*482 FILLER_11_23
*483 FILLER_11_231
*484 FILLER_11_263
*485 FILLER_11_27
*486 FILLER_11_279
*487 FILLER_11_282
*488 FILLER_11_298
*489 FILLER_11_306
*490 FILLER_11_310
*491 FILLER_11_312
*492 FILLER_11_323
*493 FILLER_11_339
*494 FILLER_11_347
*495 FILLER_11_349
*496 FILLER_11_352
*497 FILLER_11_360
*498 FILLER_11_381
*499 FILLER_11_399
*500 FILLER_11_415
*501 FILLER_11_419
*502 FILLER_11_422
*503 FILLER_11_43
*504 FILLER_11_492
*505 FILLER_11_496
*506 FILLER_11_498
*507 FILLER_11_54
*508 FILLER_11_72
*509 FILLER_11_76
*510 FILLER_11_95
*511 FILLER_12_103
*512 FILLER_12_135
*513 FILLER_12_151
*514 FILLER_12_179
*515 FILLER_12_195
*516 FILLER_12_2
*517 FILLER_12_227
*518 FILLER_12_243
*519 FILLER_12_247
*520 FILLER_12_311
*521 FILLER_12_317
*522 FILLER_12_321
*523 FILLER_12_333
*524 FILLER_12_349
*525 FILLER_12_357
*526 FILLER_12_359
*527 FILLER_12_37
*528 FILLER_12_378
*529 FILLER_12_382
*530 FILLER_12_384
*531 FILLER_12_387
*532 FILLER_12_4
*533 FILLER_12_403
*534 FILLER_12_41
*535 FILLER_12_411
*536 FILLER_12_415
*537 FILLER_12_426
*538 FILLER_12_99
*539 FILLER_13_142
*540 FILLER_13_199
*541 FILLER_13_2
*542 FILLER_13_207
*543 FILLER_13_220
*544 FILLER_13_252
*545 FILLER_13_260
*546 FILLER_13_264
*547 FILLER_13_266
*548 FILLER_13_277
*549 FILLER_13_279
*550 FILLER_13_282
*551 FILLER_13_308
*552 FILLER_13_340
*553 FILLER_13_348
*554 FILLER_13_352
*555 FILLER_13_370
*556 FILLER_13_402
*557 FILLER_13_410
*558 FILLER_13_422
*559 FILLER_13_489
*560 FILLER_13_492
*561 FILLER_13_496
*562 FILLER_13_498
*563 FILLER_13_72
*564 FILLER_13_80
*565 FILLER_14_117
*566 FILLER_14_185
*567 FILLER_14_2
*568 FILLER_14_215
*569 FILLER_14_231
*570 FILLER_14_257
*571 FILLER_14_289
*572 FILLER_14_305
*573 FILLER_14_313
*574 FILLER_14_337
*575 FILLER_14_369
*576 FILLER_14_37
*577 FILLER_14_387
*578 FILLER_14_389
*579 FILLER_14_400
*580 FILLER_14_404
*581 FILLER_14_451
*582 FILLER_14_6
*583 FILLER_15_104
*584 FILLER_15_138
*585 FILLER_15_172
*586 FILLER_15_2
*587 FILLER_15_224
*588 FILLER_15_232
*589 FILLER_15_236
*590 FILLER_15_240
*591 FILLER_15_274
*592 FILLER_15_308
*593 FILLER_15_342
*594 FILLER_15_36
*595 FILLER_15_376
*596 FILLER_15_392
*597 FILLER_15_410
*598 FILLER_15_439
*599 FILLER_15_472
*600 FILLER_15_492
*601 FILLER_15_496
*602 FILLER_15_498
*603 FILLER_15_70
*604 FILLER_1_104
*605 FILLER_1_112
*606 FILLER_1_114
*607 FILLER_1_125
*608 FILLER_1_133
*609 FILLER_1_137
*610 FILLER_1_139
*611 FILLER_1_142
*612 FILLER_1_146
*613 FILLER_1_157
*614 FILLER_1_173
*615 FILLER_1_177
*616 FILLER_1_188
*617 FILLER_1_2
*618 FILLER_1_204
*619 FILLER_1_220
*620 FILLER_1_236
*621 FILLER_1_244
*622 FILLER_1_248
*623 FILLER_1_259
*624 FILLER_1_263
*625 FILLER_1_274
*626 FILLER_1_278
*627 FILLER_1_28
*628 FILLER_1_282
*629 FILLER_1_346
*630 FILLER_1_352
*631 FILLER_1_416
*632 FILLER_1_422
*633 FILLER_1_438
*634 FILLER_1_44
*635 FILLER_1_446
*636 FILLER_1_450
*637 FILLER_1_48
*638 FILLER_1_492
*639 FILLER_1_496
*640 FILLER_1_498
*641 FILLER_1_60
*642 FILLER_1_68
*643 FILLER_1_72
*644 FILLER_2_103
*645 FILLER_2_107
*646 FILLER_2_171
*647 FILLER_2_177
*648 FILLER_2_18
*649 FILLER_2_181
*650 FILLER_2_193
*651 FILLER_2_2
*652 FILLER_2_209
*653 FILLER_2_213
*654 FILLER_2_225
*655 FILLER_2_241
*656 FILLER_2_257
*657 FILLER_2_26
*658 FILLER_2_273
*659 FILLER_2_277
*660 FILLER_2_289
*661 FILLER_2_305
*662 FILLER_2_313
*663 FILLER_2_317
*664 FILLER_2_325
*665 FILLER_2_339
*666 FILLER_2_371
*667 FILLER_2_379
*668 FILLER_2_383
*669 FILLER_2_387
*670 FILLER_2_39
*671 FILLER_2_451
*672 FILLER_3_126
*673 FILLER_3_137
*674 FILLER_3_139
*675 FILLER_3_142
*676 FILLER_3_150
*677 FILLER_3_154
*678 FILLER_3_156
*679 FILLER_3_167
*680 FILLER_3_199
*681 FILLER_3_2
*682 FILLER_3_207
*683 FILLER_3_209
*684 FILLER_3_212
*685 FILLER_3_276
*686 FILLER_3_292
*687 FILLER_3_300
*688 FILLER_3_302
*689 FILLER_3_313
*690 FILLER_3_327
*691 FILLER_3_343
*692 FILLER_3_347
*693 FILLER_3_349
*694 FILLER_3_352
*695 FILLER_3_368
*696 FILLER_3_376
*697 FILLER_3_380
*698 FILLER_3_382
*699 FILLER_3_393
*700 FILLER_3_409
*701 FILLER_3_417
*702 FILLER_3_419
*703 FILLER_3_422
*704 FILLER_3_430
*705 FILLER_3_434
*706 FILLER_3_436
*707 FILLER_3_447
*708 FILLER_3_451
*709 FILLER_3_492
*710 FILLER_3_496
*711 FILLER_3_498
*712 FILLER_3_66
*713 FILLER_3_82
*714 FILLER_3_94
*715 FILLER_4_103
*716 FILLER_4_107
*717 FILLER_4_111
*718 FILLER_4_115
*719 FILLER_4_147
*720 FILLER_4_163
*721 FILLER_4_171
*722 FILLER_4_177
*723 FILLER_4_2
*724 FILLER_4_241
*725 FILLER_4_247
*726 FILLER_4_311
*727 FILLER_4_327
*728 FILLER_4_335
*729 FILLER_4_339
*730 FILLER_4_34
*731 FILLER_4_341
*732 FILLER_4_352
*733 FILLER_4_360
*734 FILLER_4_362
*735 FILLER_4_373
*736 FILLER_4_381
*737 FILLER_4_387
*738 FILLER_4_419
*739 FILLER_4_427
*740 FILLER_4_441
*741 FILLER_4_449
*742 FILLER_4_469
*743 FILLER_4_47
*744 FILLER_4_79
*745 FILLER_4_95
*746 FILLER_5_10
*747 FILLER_5_104
*748 FILLER_5_113
*749 FILLER_5_124
*750 FILLER_5_130
*751 FILLER_5_138
*752 FILLER_5_142
*753 FILLER_5_2
*754 FILLER_5_206
*755 FILLER_5_21
*756 FILLER_5_212
*757 FILLER_5_228
*758 FILLER_5_236
*759 FILLER_5_240
*760 FILLER_5_25
*761 FILLER_5_252
*762 FILLER_5_268
*763 FILLER_5_27
*764 FILLER_5_276
*765 FILLER_5_282
*766 FILLER_5_346
*767 FILLER_5_352
*768 FILLER_5_38
*769 FILLER_5_384
*770 FILLER_5_400
*771 FILLER_5_408
*772 FILLER_5_422
*773 FILLER_5_438
*774 FILLER_5_446
*775 FILLER_5_46
*776 FILLER_5_492
*777 FILLER_5_496
*778 FILLER_5_498
*779 FILLER_5_50
*780 FILLER_5_52
*781 FILLER_5_63
*782 FILLER_5_67
*783 FILLER_5_69
*784 FILLER_5_72
*785 FILLER_6_101
*786 FILLER_6_107
*787 FILLER_6_111
*788 FILLER_6_136
*789 FILLER_6_152
*790 FILLER_6_160
*791 FILLER_6_164
*792 FILLER_6_166
*793 FILLER_6_179
*794 FILLER_6_2
*795 FILLER_6_243
*796 FILLER_6_247
*797 FILLER_6_255
*798 FILLER_6_259
*799 FILLER_6_261
*800 FILLER_6_272
*801 FILLER_6_286
*802 FILLER_6_302
*803 FILLER_6_310
*804 FILLER_6_314
*805 FILLER_6_317
*806 FILLER_6_34
*807 FILLER_6_37
*808 FILLER_6_381
*809 FILLER_6_387
*810 FILLER_6_451
*811 FILLER_7_104
*812 FILLER_7_122
*813 FILLER_7_138
*814 FILLER_7_142
*815 FILLER_7_174
*816 FILLER_7_176
*817 FILLER_7_18
*818 FILLER_7_187
*819 FILLER_7_195
*820 FILLER_7_199
*821 FILLER_7_2
*822 FILLER_7_212
*823 FILLER_7_22
*824 FILLER_7_276
*825 FILLER_7_282
*826 FILLER_7_314
*827 FILLER_7_322
*828 FILLER_7_34
*829 FILLER_7_346
*830 FILLER_7_352
*831 FILLER_7_360
*832 FILLER_7_372
*833 FILLER_7_404
*834 FILLER_7_422
*835 FILLER_7_454
*836 FILLER_7_492
*837 FILLER_7_496
*838 FILLER_7_498
*839 FILLER_7_66
*840 FILLER_7_72
*841 FILLER_8_102
*842 FILLER_8_104
*843 FILLER_8_107
*844 FILLER_8_139
*845 FILLER_8_155
*846 FILLER_8_159
*847 FILLER_8_161
*848 FILLER_8_172
*849 FILLER_8_174
*850 FILLER_8_177
*851 FILLER_8_2
*852 FILLER_8_241
*853 FILLER_8_247
*854 FILLER_8_263
*855 FILLER_8_274
*856 FILLER_8_306
*857 FILLER_8_314
*858 FILLER_8_317
*859 FILLER_8_34
*860 FILLER_8_37
*861 FILLER_8_381
*862 FILLER_8_387
*863 FILLER_8_419
*864 FILLER_8_435
*865 FILLER_8_443
*866 FILLER_8_69
*867 FILLER_8_77
*868 FILLER_8_79
*869 FILLER_8_90
*870 FILLER_8_98
*871 FILLER_9_114
*872 FILLER_9_130
*873 FILLER_9_138
*874 FILLER_9_142
*875 FILLER_9_158
*876 FILLER_9_16
*877 FILLER_9_166
*878 FILLER_9_170
*879 FILLER_9_181
*880 FILLER_9_195
*881 FILLER_9_203
*882 FILLER_9_207
*883 FILLER_9_209
*884 FILLER_9_212
*885 FILLER_9_276
*886 FILLER_9_282
*887 FILLER_9_298
*888 FILLER_9_310
*889 FILLER_9_32
*890 FILLER_9_342
*891 FILLER_9_346
*892 FILLER_9_360
*893 FILLER_9_392
*894 FILLER_9_40
*895 FILLER_9_408
*896 FILLER_9_416
*897 FILLER_9_422
*898 FILLER_9_433
*899 FILLER_9_437
*900 FILLER_9_492
*901 FILLER_9_496
*902 FILLER_9_498
*903 FILLER_9_52
*904 FILLER_9_68
*905 FILLER_9_82
*906 PHY_EDGE_ROW_0_Left_16
*907 PHY_EDGE_ROW_0_Right_0
*908 PHY_EDGE_ROW_10_Left_26
*909 PHY_EDGE_ROW_10_Right_10
*910 PHY_EDGE_ROW_11_Left_27
*911 PHY_EDGE_ROW_11_Right_11
*912 PHY_EDGE_ROW_12_Left_28
*913 PHY_EDGE_ROW_12_Right_12
*914 PHY_EDGE_ROW_13_Left_29
*915 PHY_EDGE_ROW_13_Right_13
*916 PHY_EDGE_ROW_14_Left_30
*917 PHY_EDGE_ROW_14_Right_14
*918 PHY_EDGE_ROW_15_Left_31
*919 PHY_EDGE_ROW_15_Right_15
*920 PHY_EDGE_ROW_1_Left_17
*921 PHY_EDGE_ROW_1_Right_1
*922 PHY_EDGE_ROW_2_Left_18
*923 PHY_EDGE_ROW_2_Right_2
*924 PHY_EDGE_ROW_3_Left_19
*925 PHY_EDGE_ROW_3_Right_3
*926 PHY_EDGE_ROW_4_Left_20
*927 PHY_EDGE_ROW_4_Right_4
*928 PHY_EDGE_ROW_5_Left_21
*929 PHY_EDGE_ROW_5_Right_5
*930 PHY_EDGE_ROW_6_Left_22
*931 PHY_EDGE_ROW_6_Right_6
*932 PHY_EDGE_ROW_7_Left_23
*933 PHY_EDGE_ROW_7_Right_7
*934 PHY_EDGE_ROW_8_Left_24
*935 PHY_EDGE_ROW_8_Right_8
*936 PHY_EDGE_ROW_9_Left_25
*937 PHY_EDGE_ROW_9_Right_9
*938 S_term_single_106
*939 TAP_TAPCELL_ROW_0_32
*940 TAP_TAPCELL_ROW_0_33
*941 TAP_TAPCELL_ROW_0_34
*942 TAP_TAPCELL_ROW_0_35
*943 TAP_TAPCELL_ROW_0_36
*944 TAP_TAPCELL_ROW_0_37
*945 TAP_TAPCELL_ROW_0_38
*946 TAP_TAPCELL_ROW_0_39
*947 TAP_TAPCELL_ROW_0_40
*948 TAP_TAPCELL_ROW_0_41
*949 TAP_TAPCELL_ROW_0_42
*950 TAP_TAPCELL_ROW_0_43
*951 TAP_TAPCELL_ROW_0_44
*952 TAP_TAPCELL_ROW_0_45
*953 TAP_TAPCELL_ROW_10_109
*954 TAP_TAPCELL_ROW_10_110
*955 TAP_TAPCELL_ROW_10_111
*956 TAP_TAPCELL_ROW_10_112
*957 TAP_TAPCELL_ROW_10_113
*958 TAP_TAPCELL_ROW_10_114
*959 TAP_TAPCELL_ROW_10_115
*960 TAP_TAPCELL_ROW_11_116
*961 TAP_TAPCELL_ROW_11_117
*962 TAP_TAPCELL_ROW_11_118
*963 TAP_TAPCELL_ROW_11_119
*964 TAP_TAPCELL_ROW_11_120
*965 TAP_TAPCELL_ROW_11_121
*966 TAP_TAPCELL_ROW_11_122
*967 TAP_TAPCELL_ROW_12_123
*968 TAP_TAPCELL_ROW_12_124
*969 TAP_TAPCELL_ROW_12_125
*970 TAP_TAPCELL_ROW_12_126
*971 TAP_TAPCELL_ROW_12_127
*972 TAP_TAPCELL_ROW_12_128
*973 TAP_TAPCELL_ROW_12_129
*974 TAP_TAPCELL_ROW_13_130
*975 TAP_TAPCELL_ROW_13_131
*976 TAP_TAPCELL_ROW_13_132
*977 TAP_TAPCELL_ROW_13_133
*978 TAP_TAPCELL_ROW_13_134
*979 TAP_TAPCELL_ROW_13_135
*980 TAP_TAPCELL_ROW_13_136
*981 TAP_TAPCELL_ROW_14_137
*982 TAP_TAPCELL_ROW_14_138
*983 TAP_TAPCELL_ROW_14_139
*984 TAP_TAPCELL_ROW_14_140
*985 TAP_TAPCELL_ROW_14_141
*986 TAP_TAPCELL_ROW_14_142
*987 TAP_TAPCELL_ROW_14_143
*988 TAP_TAPCELL_ROW_15_144
*989 TAP_TAPCELL_ROW_15_145
*990 TAP_TAPCELL_ROW_15_146
*991 TAP_TAPCELL_ROW_15_147
*992 TAP_TAPCELL_ROW_15_148
*993 TAP_TAPCELL_ROW_15_149
*994 TAP_TAPCELL_ROW_15_150
*995 TAP_TAPCELL_ROW_15_151
*996 TAP_TAPCELL_ROW_15_152
*997 TAP_TAPCELL_ROW_15_153
*998 TAP_TAPCELL_ROW_15_154
*999 TAP_TAPCELL_ROW_15_155
*1000 TAP_TAPCELL_ROW_15_156
*1001 TAP_TAPCELL_ROW_15_157
*1002 TAP_TAPCELL_ROW_1_46
*1003 TAP_TAPCELL_ROW_1_47
*1004 TAP_TAPCELL_ROW_1_48
*1005 TAP_TAPCELL_ROW_1_49
*1006 TAP_TAPCELL_ROW_1_50
*1007 TAP_TAPCELL_ROW_1_51
*1008 TAP_TAPCELL_ROW_1_52
*1009 TAP_TAPCELL_ROW_2_53
*1010 TAP_TAPCELL_ROW_2_54
*1011 TAP_TAPCELL_ROW_2_55
*1012 TAP_TAPCELL_ROW_2_56
*1013 TAP_TAPCELL_ROW_2_57
*1014 TAP_TAPCELL_ROW_2_58
*1015 TAP_TAPCELL_ROW_2_59
*1016 TAP_TAPCELL_ROW_3_60
*1017 TAP_TAPCELL_ROW_3_61
*1018 TAP_TAPCELL_ROW_3_62
*1019 TAP_TAPCELL_ROW_3_63
*1020 TAP_TAPCELL_ROW_3_64
*1021 TAP_TAPCELL_ROW_3_65
*1022 TAP_TAPCELL_ROW_3_66
*1023 TAP_TAPCELL_ROW_4_67
*1024 TAP_TAPCELL_ROW_4_68
*1025 TAP_TAPCELL_ROW_4_69
*1026 TAP_TAPCELL_ROW_4_70
*1027 TAP_TAPCELL_ROW_4_71
*1028 TAP_TAPCELL_ROW_4_72
*1029 TAP_TAPCELL_ROW_4_73
*1030 TAP_TAPCELL_ROW_5_74
*1031 TAP_TAPCELL_ROW_5_75
*1032 TAP_TAPCELL_ROW_5_76
*1033 TAP_TAPCELL_ROW_5_77
*1034 TAP_TAPCELL_ROW_5_78
*1035 TAP_TAPCELL_ROW_5_79
*1036 TAP_TAPCELL_ROW_5_80
*1037 TAP_TAPCELL_ROW_6_81
*1038 TAP_TAPCELL_ROW_6_82
*1039 TAP_TAPCELL_ROW_6_83
*1040 TAP_TAPCELL_ROW_6_84
*1041 TAP_TAPCELL_ROW_6_85
*1042 TAP_TAPCELL_ROW_6_86
*1043 TAP_TAPCELL_ROW_6_87
*1044 TAP_TAPCELL_ROW_7_88
*1045 TAP_TAPCELL_ROW_7_89
*1046 TAP_TAPCELL_ROW_7_90
*1047 TAP_TAPCELL_ROW_7_91
*1048 TAP_TAPCELL_ROW_7_92
*1049 TAP_TAPCELL_ROW_7_93
*1050 TAP_TAPCELL_ROW_7_94
*1051 TAP_TAPCELL_ROW_8_100
*1052 TAP_TAPCELL_ROW_8_101
*1053 TAP_TAPCELL_ROW_8_95
*1054 TAP_TAPCELL_ROW_8_96
*1055 TAP_TAPCELL_ROW_8_97
*1056 TAP_TAPCELL_ROW_8_98
*1057 TAP_TAPCELL_ROW_8_99
*1058 TAP_TAPCELL_ROW_9_102
*1059 TAP_TAPCELL_ROW_9_103
*1060 TAP_TAPCELL_ROW_9_104
*1061 TAP_TAPCELL_ROW_9_105
*1062 TAP_TAPCELL_ROW_9_106
*1063 TAP_TAPCELL_ROW_9_107
*1064 TAP_TAPCELL_ROW_9_108
*1065 _001_
*1066 _002_
*1067 _003_
*1068 _004_
*1069 _005_
*1070 _006_
*1071 _007_
*1072 _008_
*1073 _009_
*1074 _010_
*1075 _011_
*1076 _012_
*1077 _013_
*1078 _014_
*1079 _015_
*1080 _016_
*1081 _017_
*1082 _018_
*1083 _019_
*1084 _020_
*1085 _021_
*1086 _022_
*1087 _023_
*1088 _024_
*1089 _025_
*1090 _026_
*1091 _027_
*1092 _028_
*1093 _029_
*1094 _030_
*1095 _031_
*1096 _032_
*1097 _033_
*1098 _034_
*1099 _035_
*1100 _036_
*1101 _037_
*1102 _038_
*1103 _039_
*1104 _040_
*1105 _041_
*1106 _042_
*1107 _043_
*1108 _044_
*1109 _045_
*1110 _046_
*1111 _047_
*1112 _048_
*1113 _049_
*1114 _050_
*1115 _051_
*1116 _052_
*1117 _053_
*1118 _054_
*1119 _055_
*1120 _056_
*1121 _057_
*1122 _058_
*1123 _059_
*1124 _060_
*1125 _061_
*1126 _062_
*1127 _063_
*1128 _064_
*1129 _065_
*1130 _066_
*1131 _067_
*1132 _068_
*1133 _069_
*1134 _070_
*1135 _071_
*1136 _072_
*1137 _073_
*1138 _074_
*1139 _075_
*1140 _076_
*1141 _077_
*1142 _078_
*1143 _079_
*1144 _080_
*1145 _081_
*1146 _082_
*1147 _083_
*1148 _084_
*1149 _085_
*1150 _086_
*1151 _087_
*1152 _088_
*1153 _089_
*1154 _090_
*1155 _091_
*1156 _092_
*1157 _093_
*1158 _094_
*1159 _095_
*1160 _096_
*1161 _097_
*1162 _098_
*1163 _099_
*1164 _100_
*1165 _101_
*1166 _102_
*1167 _103_
*1168 _104_
*1169 _105_
*1170 output1
*1171 output10
*1172 output100
*1173 output101
*1174 output102
*1175 output103
*1176 output104
*1177 output105
*1178 output11
*1179 output12
*1180 output13
*1181 output14
*1182 output15
*1183 output16
*1184 output17
*1185 output18
*1186 output19
*1187 output2
*1188 output20
*1189 output21
*1190 output22
*1191 output23
*1192 output24
*1193 output25
*1194 output26
*1195 output27
*1196 output28
*1197 output29
*1198 output3
*1199 output30
*1200 output31
*1201 output32
*1202 output33
*1203 output34
*1204 output35
*1205 output36
*1206 output37
*1207 output38
*1208 output39
*1209 output4
*1210 output40
*1211 output41
*1212 output42
*1213 output43
*1214 output44
*1215 output45
*1216 output46
*1217 output47
*1218 output48
*1219 output49
*1220 output5
*1221 output50
*1222 output51
*1223 output52
*1224 output53
*1225 output54
*1226 output55
*1227 output56
*1228 output57
*1229 output58
*1230 output59
*1231 output6
*1232 output60
*1233 output61
*1234 output62
*1235 output63
*1236 output64
*1237 output65
*1238 output66
*1239 output67
*1240 output68
*1241 output69
*1242 output7
*1243 output70
*1244 output71
*1245 output72
*1246 output73
*1247 output74
*1248 output75
*1249 output76
*1250 output77
*1251 output78
*1252 output79
*1253 output8
*1254 output80
*1255 output81
*1256 output82
*1257 output83
*1258 output84
*1259 output85
*1260 output86
*1261 output87
*1262 output88
*1263 output89
*1264 output9
*1265 output90
*1266 output91
*1267 output92
*1268 output93
*1269 output94
*1270 output95
*1271 output96
*1272 output97
*1273 output98
*1274 output99

*PORTS
Co O
FrameData[0] I
FrameData[10] I
FrameData[11] I
FrameData[12] I
FrameData[13] I
FrameData[14] I
FrameData[15] I
FrameData[16] I
FrameData[17] I
FrameData[18] I
FrameData[19] I
FrameData[1] I
FrameData[20] I
FrameData[21] I
FrameData[22] I
FrameData[23] I
FrameData[24] I
FrameData[25] I
FrameData[26] I
FrameData[27] I
FrameData[28] I
FrameData[29] I
FrameData[2] I
FrameData[30] I
FrameData[31] I
FrameData[3] I
FrameData[4] I
FrameData[5] I
FrameData[6] I
FrameData[7] I
FrameData[8] I
FrameData[9] I
FrameData_O[0] O
FrameData_O[10] O
FrameData_O[11] O
FrameData_O[12] O
FrameData_O[13] O
FrameData_O[14] O
FrameData_O[15] O
FrameData_O[16] O
FrameData_O[17] O
FrameData_O[18] O
FrameData_O[19] O
FrameData_O[1] O
FrameData_O[20] O
FrameData_O[21] O
FrameData_O[22] O
FrameData_O[23] O
FrameData_O[24] O
FrameData_O[25] O
FrameData_O[26] O
FrameData_O[27] O
FrameData_O[28] O
FrameData_O[29] O
FrameData_O[2] O
FrameData_O[30] O
FrameData_O[31] O
FrameData_O[3] O
FrameData_O[4] O
FrameData_O[5] O
FrameData_O[6] O
FrameData_O[7] O
FrameData_O[8] O
FrameData_O[9] O
FrameStrobe[0] I
FrameStrobe[10] I
FrameStrobe[11] I
FrameStrobe[12] I
FrameStrobe[13] I
FrameStrobe[14] I
FrameStrobe[15] I
FrameStrobe[16] I
FrameStrobe[17] I
FrameStrobe[18] I
FrameStrobe[19] I
FrameStrobe[1] I
FrameStrobe[2] I
FrameStrobe[3] I
FrameStrobe[4] I
FrameStrobe[5] I
FrameStrobe[6] I
FrameStrobe[7] I
FrameStrobe[8] I
FrameStrobe[9] I
FrameStrobe_O[0] O
FrameStrobe_O[10] O
FrameStrobe_O[11] O
FrameStrobe_O[12] O
FrameStrobe_O[13] O
FrameStrobe_O[14] O
FrameStrobe_O[15] O
FrameStrobe_O[16] O
FrameStrobe_O[17] O
FrameStrobe_O[18] O
FrameStrobe_O[19] O
FrameStrobe_O[1] O
FrameStrobe_O[2] O
FrameStrobe_O[3] O
FrameStrobe_O[4] O
FrameStrobe_O[5] O
FrameStrobe_O[6] O
FrameStrobe_O[7] O
FrameStrobe_O[8] O
FrameStrobe_O[9] O
N1BEG[0] O
N1BEG[1] O
N1BEG[2] O
N1BEG[3] O
N2BEG[0] O
N2BEG[1] O
N2BEG[2] O
N2BEG[3] O
N2BEG[4] O
N2BEG[5] O
N2BEG[6] O
N2BEG[7] O
N2BEGb[0] O
N2BEGb[1] O
N2BEGb[2] O
N2BEGb[3] O
N2BEGb[4] O
N2BEGb[5] O
N2BEGb[6] O
N2BEGb[7] O
N4BEG[0] O
N4BEG[10] O
N4BEG[11] O
N4BEG[12] O
N4BEG[13] O
N4BEG[14] O
N4BEG[15] O
N4BEG[1] O
N4BEG[2] O
N4BEG[3] O
N4BEG[4] O
N4BEG[5] O
N4BEG[6] O
N4BEG[7] O
N4BEG[8] O
N4BEG[9] O
NN4BEG[0] O
NN4BEG[10] O
NN4BEG[11] O
NN4BEG[12] O
NN4BEG[13] O
NN4BEG[14] O
NN4BEG[15] O
NN4BEG[1] O
NN4BEG[2] O
NN4BEG[3] O
NN4BEG[4] O
NN4BEG[5] O
NN4BEG[6] O
NN4BEG[7] O
NN4BEG[8] O
NN4BEG[9] O
S1END[0] I
S1END[1] I
S1END[2] I
S1END[3] I
S2END[0] I
S2END[1] I
S2END[2] I
S2END[3] I
S2END[4] I
S2END[5] I
S2END[6] I
S2END[7] I
S2MID[0] I
S2MID[1] I
S2MID[2] I
S2MID[3] I
S2MID[4] I
S2MID[5] I
S2MID[6] I
S2MID[7] I
S4END[0] I
S4END[10] I
S4END[11] I
S4END[12] I
S4END[13] I
S4END[14] I
S4END[15] I
S4END[1] I
S4END[2] I
S4END[3] I
S4END[4] I
S4END[5] I
S4END[6] I
S4END[7] I
S4END[8] I
S4END[9] I
SS4END[0] I
SS4END[10] I
SS4END[11] I
SS4END[12] I
SS4END[13] I
SS4END[14] I
SS4END[15] I
SS4END[1] I
SS4END[2] I
SS4END[3] I
SS4END[4] I
SS4END[5] I
SS4END[6] I
SS4END[7] I
SS4END[8] I
SS4END[9] I
UserCLK I
UserCLKo O

*D_NET *1 0.00224708
*CONN
*P Co O
*I *938:ZN O *D gf180mcu_fd_sc_mcu7t5v0__tiel
*CAP
1 Co 0.000546379
2 *938:ZN 0.000546379
3 Co NN4BEG[15] 0.000145119
4 Co *1257:I 4.96155e-05
5 Co *1266:I 7.91837e-05
6 Co *158:29 0.000101278
7 Co *199:47 4.6613e-06
8 Co *200:59 0.000647828
9 Co *261:72 0.000126636
*RES
1 *938:ZN Co 17.865 
*END

*D_NET *2 0.0689972
*CONN
*P FrameData[0] I
*I *1065:I I *D gf180mcu_fd_sc_mcu7t5v0__buf_2
*I *320:I I *D gf180mcu_fd_sc_mcu7t5v0__antenna
*CAP
1 FrameData[0] 0.00145691
2 *1065:I 3.27781e-05
3 *320:I 1.66669e-05
4 *2:101 0.000267075
5 *2:93 0.00268472
6 *2:75 0.00416233
7 *2:47 0.00297347
8 *2:23 0.00273515
9 *320:I *203:25 9.30128e-05
10 *1065:I *1205:I 7.07604e-05
11 *1065:I *4:63 0.000233327
12 *1065:I *163:45 3.46245e-05
13 *2:23 *1159:I 0.000394634
14 *2:23 *1227:I 0.000202377
15 *2:23 *6:21 0.000459959
16 *2:23 *11:31 0.000408612
17 *2:23 *13:23 0.000255201
18 *2:23 *24:23 0.00352863
19 *2:23 *28:27 0.00116568
20 *2:23 *32:25 1.17725e-05
21 *2:23 *33:23 0.000342705
22 *2:23 *83:23 0.00168989
23 *2:23 *208:95 2.96817e-05
24 *2:23 *210:17 0.000198978
25 *2:23 *312:22 0.000933499
26 *2:47 *1243:I 0.000409539
27 *2:47 *1244:I 0.000490927
28 *2:47 *1260:I 0.00139422
29 *2:47 *1261:I 0.000336368
30 *2:47 *32:25 1.08206e-05
31 *2:47 *84:59 0.000635099
32 *2:47 *199:87 0.00171375
33 *2:47 *222:50 0.000157852
34 *2:47 *252:16 0.00341308
35 *2:47 *260:20 1.39117e-05
36 *2:47 *262:22 0.000156306
37 *2:47 *270:36 0.00284664
38 *2:47 *273:90 0.000219114
39 *2:47 *282:36 7.41216e-05
40 *2:47 *283:16 0.00060449
41 *2:47 *311:18 2.27033e-05
42 *2:47 *312:42 0.00141913
43 *2:47 *315:22 0.000153306
44 *2:75 *384:I 1.22952e-05
45 *2:75 *1138:I 0.000234541
46 *2:75 *1261:I 0.000222211
47 *2:75 *3:67 0.000458327
48 *2:75 *6:39 0.0018065
49 *2:75 *10:43 0.00027566
50 *2:75 *14:93 3.51293e-05
51 *2:75 *19:23 2.53168e-05
52 *2:75 *26:59 0.00111873
53 *2:75 *84:31 0.000487336
54 *2:75 *160:13 0.000325906
55 *2:75 *169:29 8.68281e-06
56 *2:75 *183:37 0.00153279
57 *2:75 *184:55 0.000902704
58 *2:75 *188:63 0.000378452
59 *2:75 *188:85 9.39061e-05
60 *2:75 *202:45 0.00124904
61 *2:75 *215:20 4.6613e-06
62 *2:75 *221:38 0.00125674
63 *2:75 *222:50 0.000602764
64 *2:75 *247:24 0.000258509
65 *2:75 *252:16 0.000260119
66 *2:75 *252:48 2.48332e-05
67 *2:75 *265:52 0.00162821
68 *2:75 *266:64 1.2043e-05
69 *2:75 *278:42 1.24392e-05
70 *2:75 *299:34 4.89196e-07
71 *2:93 *350:I 0.000297145
72 *2:93 *1139:I 3.73774e-06
73 *2:93 *3:67 5.0337e-06
74 *2:93 *25:45 0.000138056
75 *2:93 *27:71 0.00034617
76 *2:93 *28:75 0.000232481
77 *2:93 *33:65 0.00406124
78 *2:93 *72:43 0.000228497
79 *2:93 *76:41 0.00030111
80 *2:93 *85:29 1.4382e-06
81 *2:93 *159:41 0.000928097
82 *2:93 *170:45 2.29592e-05
83 *2:93 *179:13 0.000117338
84 *2:93 *181:25 0.000936244
85 *2:93 *182:57 0.000233141
86 *2:93 *184:27 0.000194991
87 *2:93 *209:43 0
88 *2:93 *234:30 0.000237127
89 *2:93 *234:42 0.00191179
90 *2:93 *236:30 0.000273867
91 *2:93 *253:30 0.00050476
92 *2:93 *259:46 0.000455766
93 *2:93 *264:38 1.18323e-05
94 *2:93 *268:44 0
95 *2:93 *273:20 3.93978e-05
96 *2:93 *279:42 0.000768213
97 *2:93 *288:106 3.24207e-05
98 *2:93 *299:34 0.000267958
99 *2:93 *303:26 0.00122302
100 *2:101 *1184:I 2.42439e-05
101 *2:101 *1205:I 0.000108455
102 *2:101 *4:63 0.00166441
103 *2:101 *27:71 0.00123443
104 *2:101 *228:82 0.000509686
*RES
1 FrameData[0] *2:23 44.865 
2 *2:23 *2:47 47.07 
3 *2:47 *2:75 48.15 
4 *2:75 *2:93 47.79 
5 *2:93 *2:101 11.07 
6 *2:101 *320:I 9.27 
7 *2:101 *1065:I 9.9 
*END

*D_NET *3 0.0662441
*CONN
*P FrameData[10] I
*I *1075:I I *D gf180mcu_fd_sc_mcu7t5v0__buf_2
*I *330:I I *D gf180mcu_fd_sc_mcu7t5v0__antenna
*CAP
1 FrameData[10] 0.00143823
2 *1075:I 4.14836e-05
3 *330:I 0