*SPEF "ieee 1481-1999"
*DESIGN "GF_SRAM"
*DATE "22:51:42 Friday December 05, 2025"
*VENDOR "The OpenROAD Project"
*PROGRAM "OpenROAD"
*VERSION "341650e72dad0dc8571822ff8c5d9c5e365327f7"
*DESIGN_FLOW "NAME_SCOPE LOCAL" "PIN_CAP NONE"
*DIVIDER /
*DELIMITER :
*BUS_DELIMITER []
*T_UNIT 1 NS
*C_UNIT 1 PF
*R_UNIT 1 OHM
*L_UNIT 1 HENRY

*NAME_MAP
*1 A_SRAM0
*2 A_SRAM1
*3 A_SRAM2
*4 A_SRAM3
*5 A_SRAM4
*6 A_SRAM5
*7 A_SRAM6
*8 A_SRAM7
*9 A_SRAM8
*10 CEN_SRAM
*11 CLK_SRAM
*12 CONFIGURED_top
*13 D_SRAM0
*14 D_SRAM1
*15 D_SRAM2
*16 D_SRAM3
*17 D_SRAM4
*18 D_SRAM5
*19 D_SRAM6
*20 D_SRAM7
*21 GWEN_SRAM
*22 Q_SRAM0
*23 Q_SRAM1
*24 Q_SRAM2
*25 Q_SRAM3
*26 Q_SRAM4
*27 Q_SRAM5
*28 Q_SRAM6
*29 Q_SRAM7
*30 Tile_X0Y0_E1END[0]
*31 Tile_X0Y0_E1END[1]
*32 Tile_X0Y0_E1END[2]
*33 Tile_X0Y0_E1END[3]
*34 Tile_X0Y0_E2END[0]
*35 Tile_X0Y0_E2END[1]
*36 Tile_X0Y0_E2END[2]
*37 Tile_X0Y0_E2END[3]
*38 Tile_X0Y0_E2END[4]
*39 Tile_X0Y0_E2END[5]
*40 Tile_X0Y0_E2END[6]
*41 Tile_X0Y0_E2END[7]
*42 Tile_X0Y0_E2MID[0]
*43 Tile_X0Y0_E2MID[1]
*44 Tile_X0Y0_E2MID[2]
*45 Tile_X0Y0_E2MID[3]
*46 Tile_X0Y0_E2MID[4]
*47 Tile_X0Y0_E2MID[5]
*48 Tile_X0Y0_E2MID[6]
*49 Tile_X0Y0_E2MID[7]
*50 Tile_X0Y0_E6END[0]
*51 Tile_X0Y0_E6END[10]
*52 Tile_X0Y0_E6END[11]
*53 Tile_X0Y0_E6END[1]
*54 Tile_X0Y0_E6END[2]
*55 Tile_X0Y0_E6END[3]
*56 Tile_X0Y0_E6END[4]
*57 Tile_X0Y0_E6END[5]
*58 Tile_X0Y0_E6END[6]
*59 Tile_X0Y0_E6END[7]
*60 Tile_X0Y0_E6END[8]
*61 Tile_X0Y0_E6END[9]
*62 Tile_X0Y0_EE4END[0]
*63 Tile_X0Y0_EE4END[10]
*64 Tile_X0Y0_EE4END[11]
*65 Tile_X0Y0_EE4END[12]
*66 Tile_X0Y0_EE4END[13]
*67 Tile_X0Y0_EE4END[14]
*68 Tile_X0Y0_EE4END[15]
*69 Tile_X0Y0_EE4END[1]
*70 Tile_X0Y0_EE4END[2]
*71 Tile_X0Y0_EE4END[3]
*72 Tile_X0Y0_EE4END[4]
*73 Tile_X0Y0_EE4END[5]
*74 Tile_X0Y0_EE4END[6]
*75 Tile_X0Y0_EE4END[7]
*76 Tile_X0Y0_EE4END[8]
*77 Tile_X0Y0_EE4END[9]
*78 Tile_X0Y0_FrameData[0]
*79 Tile_X0Y0_FrameData[10]
*80 Tile_X0Y0_FrameData[11]
*81 Tile_X0Y0_FrameData[12]
*82 Tile_X0Y0_FrameData[13]
*83 Tile_X0Y0_FrameData[14]
*84 Tile_X0Y0_FrameData[15]
*85 Tile_X0Y0_FrameData[16]
*86 Tile_X0Y0_FrameData[17]
*87 Tile_X0Y0_FrameData[18]
*88 Tile_X0Y0_FrameData[19]
*89 Tile_X0Y0_FrameData[1]
*90 Tile_X0Y0_FrameData[20]
*91 Tile_X0Y0_FrameData[21]
*92 Tile_X0Y0_FrameData[22]
*93 Tile_X0Y0_FrameData[23]
*94 Tile_X0Y0_FrameData[24]
*95 Tile_X0Y0_FrameData[25]
*96 Tile_X0Y0_FrameData[26]
*97 Tile_X0Y0_FrameData[27]
*98 Tile_X0Y0_FrameData[28]
*99 Tile_X0Y0_FrameData[29]
*100 Tile_X0Y0_FrameData[2]
*101 Tile_X0Y0_FrameData[30]
*102 Tile_X0Y0_FrameData[31]
*103 Tile_X0Y0_FrameData[3]
*104 Tile_X0Y0_FrameData[4]
*105 Tile_X0Y0_FrameData[5]
*106 Tile_X0Y0_FrameData[6]
*107 Tile_X0Y0_FrameData[7]
*108 Tile_X0Y0_FrameData[8]
*109 Tile_X0Y0_FrameData[9]
*110 Tile_X0Y0_FrameData_O[0]
*111 Tile_X0Y0_FrameData_O[10]
*112 Tile_X0Y0_FrameData_O[11]
*113 Tile_X0Y0_FrameData_O[12]
*114 Tile_X0Y0_FrameData_O[13]
*115 Tile_X0Y0_FrameData_O[14]
*116 Tile_X0Y0_FrameData_O[15]
*117 Tile_X0Y0_FrameData_O[16]
*118 Tile_X0Y0_FrameData_O[17]
*119 Tile_X0Y0_FrameData_O[18]
*120 Tile_X0Y0_FrameData_O[19]
*121 Tile_X0Y0_FrameData_O[1]
*122 Tile_X0Y0_FrameData_O[20]
*123 Tile_X0Y0_FrameData_O[21]
*124 Tile_X0Y0_FrameData_O[22]
*125 Tile_X0Y0_FrameData_O[23]
*126 Tile_X0Y0_FrameData_O[24]
*127 Tile_X0Y0_FrameData_O[25]
*128 Tile_X0Y0_FrameData_O[26]
*129 Tile_X0Y0_FrameData_O[27]
*130 Tile_X0Y0_FrameData_O[28]
*131 Tile_X0Y0_FrameData_O[29]
*132 Tile_X0Y0_FrameData_O[2]
*133 Tile_X0Y0_FrameData_O[30]
*134 Tile_X0Y0_FrameData_O[31]
*135 Tile_X0Y0_FrameData_O[3]
*136 Tile_X0Y0_FrameData_O[4]
*137 Tile_X0Y0_FrameData_O[5]
*138 Tile_X0Y0_FrameData_O[6]
*139 Tile_X0Y0_FrameData_O[7]
*140 Tile_X0Y0_FrameData_O[8]
*141 Tile_X0Y0_FrameData_O[9]
*142 Tile_X0Y0_FrameStrobe_O[0]
*143 Tile_X0Y0_FrameStrobe_O[10]
*144 Tile_X0Y0_FrameStrobe_O[11]
*145 Tile_X0Y0_FrameStrobe_O[12]
*146 Tile_X0Y0_FrameStrobe_O[13]
*147 Tile_X0Y0_FrameStrobe_O[14]
*148 Tile_X0Y0_FrameStrobe_O[15]
*149 Tile_X0Y0_FrameStrobe_O[16]
*150 Tile_X0Y0_FrameStrobe_O[17]
*151 Tile_X0Y0_FrameStrobe_O[18]
*152 Tile_X0Y0_FrameStrobe_O[19]
*153 Tile_X0Y0_FrameStrobe_O[1]
*154 Tile_X0Y0_FrameStrobe_O[2]
*155 Tile_X0Y0_FrameStrobe_O[3]
*156 Tile_X0Y0_FrameStrobe_O[4]
*157 Tile_X0Y0_FrameStrobe_O[5]
*158 Tile_X0Y0_FrameStrobe_O[6]
*159 Tile_X0Y0_FrameStrobe_O[7]
*160 Tile_X0Y0_FrameStrobe_O[8]
*161 Tile_X0Y0_FrameStrobe_O[9]
*162 Tile_X0Y0_N1BEG[0]
*163 Tile_X0Y0_N1BEG[1]
*164 Tile_X0Y0_N1BEG[2]
*165 Tile_X0Y0_N1BEG[3]
*166 Tile_X0Y0_N2BEG[0]
*167 Tile_X0Y0_N2BEG[1]
*168 Tile_X0Y0_N2BEG[2]
*169 Tile_X0Y0_N2BEG[3]
*170 Tile_X0Y0_N2BEG[4]
*171 Tile_X0Y0_N2BEG[5]
*172 Tile_X0Y0_N2BEG[6]
*173 Tile_X0Y0_N2BEG[7]
*174 Tile_X0Y0_N2BEGb[0]
*175 Tile_X0Y0_N2BEGb[1]
*176 Tile_X0Y0_N2BEGb[2]
*177 Tile_X0Y0_N2BEGb[3]
*178 Tile_X0Y0_N2BEGb[4]
*179 Tile_X0Y0_N2BEGb[5]
*180 Tile_X0Y0_N2BEGb[6]
*181 Tile_X0Y0_N2BEGb[7]
*182 Tile_X0Y0_N4BEG[0]
*183 Tile_X0Y0_N4BEG[10]
*184 Tile_X0Y0_N4BEG[11]
*185 Tile_X0Y0_N4BEG[12]
*186 Tile_X0Y0_N4BEG[13]
*187 Tile_X0Y0_N4BEG[14]
*188 Tile_X0Y0_N4BEG[15]
*189 Tile_X0Y0_N4BEG[1]
*190 Tile_X0Y0_N4BEG[2]
*191 Tile_X0Y0_N4BEG[3]
*192 Tile_X0Y0_N4BEG[4]
*193 Tile_X0Y0_N4BEG[5]
*194 Tile_X0Y0_N4BEG[6]
*195 Tile_X0Y0_N4BEG[7]
*196 Tile_X0Y0_N4BEG[8]
*197 Tile_X0Y0_N4BEG[9]
*198 Tile_X0Y0_S1END[0]
*199 Tile_X0Y0_S1END[1]
*200 Tile_X0Y0_S1END[2]
*201 Tile_X0Y0_S1END[3]
*202 Tile_X0Y0_S2END[0]
*203 Tile_X0Y0_S2END[1]
*204 Tile_X0Y0_S2END[2]
*205 Tile_X0Y0_S2END[3]
*206 Tile_X0Y0_S2END[4]
*207 Tile_X0Y0_S2END[5]
*208 Tile_X0Y0_S2END[6]
*209 Tile_X0Y0_S2END[7]
*210 Tile_X0Y0_S2MID[0]
*211 Tile_X0Y0_S2MID[1]
*212 Tile_X0Y0_S2MID[2]
*213 Tile_X0Y0_S2MID[3]
*214 Tile_X0Y0_S2MID[4]
*215 Tile_X0Y0_S2MID[5]
*216 Tile_X0Y0_S2MID[6]
*217 Tile_X0Y0_S2MID[7]
*218 Tile_X0Y0_S4END[0]
*219 Tile_X0Y0_S4END[10]
*220 Tile_X0Y0_S4END[11]
*221 Tile_X0Y0_S4END[12]
*222 Tile_X0Y0_S4END[13]
*223 Tile_X0Y0_S4END[14]
*224 Tile_X0Y0_S4END[15]
*225 Tile_X0Y0_S4END[1]
*226 Tile_X0Y0_S4END[2]
*227 Tile_X0Y0_S4END[3]
*228 Tile_X0Y0_S4END[4]
*229 Tile_X0Y0_S4END[5]
*230 Tile_X0Y0_S4END[6]
*231 Tile_X0Y0_S4END[7]
*232 Tile_X0Y0_S4END[8]
*233 Tile_X0Y0_S4END[9]
*234 Tile_X0Y0_UserCLKo
*235 Tile_X0Y0_W1BEG[0]
*236 Tile_X0Y0_W1BEG[1]
*237 Tile_X0Y0_W1BEG[2]
*238 Tile_X0Y0_W1BEG[3]
*239 Tile_X0Y0_W2BEG[0]
*240 Tile_X0Y0_W2BEG[1]
*241 Tile_X0Y0_W2BEG[2]
*242 Tile_X0Y0_W2BEG[3]
*243 Tile_X0Y0_W2BEG[4]
*244 Tile_X0Y0_W2BEG[5]
*245 Tile_X0Y0_W2BEG[6]
*246 Tile_X0Y0_W2BEG[7]
*247 Tile_X0Y0_W2BEGb[0]
*248 Tile_X0Y0_W2BEGb[1]
*249 Tile_X0Y0_W2BEGb[2]
*250 Tile_X0Y0_W2BEGb[3]
*251 Tile_X0Y0_W2BEGb[4]
*252 Tile_X0Y0_W2BEGb[5]
*253 Tile_X0Y0_W2BEGb[6]
*254 Tile_X0Y0_W2BEGb[7]
*255 Tile_X0Y0_W6BEG[0]
*256 Tile_X0Y0_W6BEG[10]
*257 Tile_X0Y0_W6BEG[11]
*258 Tile_X0Y0_W6BEG[1]
*259 Tile_X0Y0_W6BEG[2]
*260 Tile_X0Y0_W6BEG[3]
*261 Tile_X0Y0_W6BEG[4]
*262 Tile_X0Y0_W6BEG[5]
*263 Tile_X0Y0_W6BEG[6]
*264 Tile_X0Y0_W6BEG[7]
*265 Tile_X0Y0_W6BEG[8]
*266 Tile_X0Y0_W6BEG[9]
*267 Tile_X0Y0_WW4BEG[0]
*268 Tile_X0Y0_WW4BEG[10]
*269 Tile_X0Y0_WW4BEG[11]
*270 Tile_X0Y0_WW4BEG[12]
*271 Tile_X0Y0_WW4BEG[13]
*272 Tile_X0Y0_WW4BEG[14]
*273 Tile_X0Y0_WW4BEG[15]
*274 Tile_X0Y0_WW4BEG[1]
*275 Tile_X0Y0_WW4BEG[2]
*276 Tile_X0Y0_WW4BEG[3]
*277 Tile_X0Y0_WW4BEG[4]
*278 Tile_X0Y0_WW4BEG[5]
*279 Tile_X0Y0_WW4BEG[6]
*280 Tile_X0Y0_WW4BEG[7]
*281 Tile_X0Y0_WW4BEG[8]
*282 Tile_X0Y0_WW4BEG[9]
*283 Tile_X0Y1_E1END[0]
*284 Tile_X0Y1_E1END[1]
*285 Tile_X0Y1_E1END[2]
*286 Tile_X0Y1_E1END[3]
*287 Tile_X0Y1_E2END[0]
*288 Tile_X0Y1_E2END[1]
*289 Tile_X0Y1_E2END[2]
*290 Tile_X0Y1_E2END[3]
*291 Tile_X0Y1_E2END[4]
*292 Tile_X0Y1_E2END[5]
*293 Tile_X0Y1_E2END[6]
*294 Tile_X0Y1_E2END[7]
*295 Tile_X0Y1_E2MID[0]
*296 Tile_X0Y1_E2MID[1]
*297 Tile_X0Y1_E2MID[2]
*298 Tile_X0Y1_E2MID[3]
*299 Tile_X0Y1_E2MID[4]
*300 Tile_X0Y1_E2MID[5]
*301 Tile_X0Y1_E2MID[6]
*302 Tile_X0Y1_E2MID[7]
*303 Tile_X0Y1_E6END[0]
*304 Tile_X0Y1_E6END[10]
*305 Tile_X0Y1_E6END[11]
*306 Tile_X0Y1_E6END[1]
*307 Tile_X0Y1_E6END[2]
*308 Tile_X0Y1_E6END[3]
*309 Tile_X0Y1_E6END[4]
*310 Tile_X0Y1_E6END[5]
*311 Tile_X0Y1_E6END[6]
*312 Tile_X0Y1_E6END[7]
*313 Tile_X0Y1_E6END[8]
*314 Tile_X0Y1_E6END[9]
*315 Tile_X0Y1_EE4END[0]
*316 Tile_X0Y1_EE4END[10]
*317 Tile_X0Y1_EE4END[11]
*318 Tile_X0Y1_EE4END[12]
*319 Tile_X0Y1_EE4END[13]
*320 Tile_X0Y1_EE4END[14]
*321 Tile_X0Y1_EE4END[15]
*322 Tile_X0Y1_EE4END[1]
*323 Tile_X0Y1_EE4END[2]
*324 Tile_X0Y1_EE4END[3]
*325 Tile_X0Y1_EE4END[4]
*326 Tile_X0Y1_EE4END[5]
*327 Tile_X0Y1_EE4END[6]
*328 Tile_X0Y1_EE4END[7]
*329 Tile_X0Y1_EE4END[8]
*330 Tile_X0Y1_EE4END[9]
*331 Tile_X0Y1_FrameData[0]
*332 Tile_X0Y1_FrameData[10]
*333 Tile_X0Y1_FrameData[11]
*334 Tile_X0Y1_FrameData[12]
*335 Tile_X0Y1_FrameData[13]
*336 Tile_X0Y1_FrameData[14]
*337 Tile_X0Y1_FrameData[15]
*338 Tile_X0Y1_FrameData[16]
*339 Tile_X0Y1_FrameData[17]
*340 Tile_X0Y1_FrameData[18]
*341 Tile_X0Y1_FrameData[19]
*342 Tile_X0Y1_FrameData[1]
*343 Tile_X0Y1_FrameData[20]
*344 Tile_X0Y1_FrameData[21]
*345 Tile_X0Y1_FrameData[22]
*346 Tile_X0Y1_FrameData[23]
*347 Tile_X0Y1_FrameData[24]
*348 Tile_X0Y1_FrameData[25]
*349 Tile_X0Y1_FrameData[26]
*350 Tile_X0Y1_FrameData[27]
*351 Tile_X0Y1_FrameData[28]
*352 Tile_X0Y1_FrameData[29]
*353 Tile_X0Y1_FrameData[2]
*354 Tile_X0Y1_FrameData[30]
*355 Tile_X0Y1_FrameData[31]
*356 Tile_X0Y1_FrameData[3]
*357 Tile_X0Y1_FrameData[4]
*358 Tile_X0Y1_FrameData[5]
*359 Tile_X0Y1_FrameData[6]
*360 Tile_X0Y1_FrameData[7]
*361 Tile_X0Y1_FrameData[8]
*362 Tile_X0Y1_FrameData[9]
*363 Tile_X0Y1_FrameData_O[0]
*364 Tile_X0Y1_FrameData_O[10]
*365 Tile_X0Y1_FrameData_O[11]
*366 Tile_X0Y1_FrameData_O[12]
*367 Tile_X0Y1_FrameData_O[13]
*368 Tile_X0Y1_FrameData_O[14]
*369 Tile_X0Y1_FrameData_O[15]
*370 Tile_X0Y1_FrameData_O[16]
*371 Tile_X0Y1_FrameData_O[17]
*372 Tile_X0Y1_FrameData_O[18]
*373 Tile_X0Y1_FrameData_O[19]
*374 Tile_X0Y1_FrameData_O[1]
*375 Tile_X0Y1_FrameData_O[20]
*376 Tile_X0Y1_FrameData_O[21]
*377 Tile_X0Y1_FrameData_O[22]
*378 Tile_X0Y1_FrameData_O[23]
*379 Tile_X0Y1_FrameData_O[24]
*380 Tile_X0Y1_FrameData_O[25]
*381 Tile_X0Y1_FrameData_O[26]
*382 Tile_X0Y1_FrameData_O[27]
*383 Tile_X0Y1_FrameData_O[28]
*384 Tile_X0Y1_FrameData_O[29]
*385 Tile_X0Y1_FrameData_O[2]
*386 Tile_X0Y1_FrameData_O[30]
*387 Tile_X0Y1_FrameData_O[31]
*388 Tile_X0Y1_FrameData_O[3]
*389 Tile_X0Y1_FrameData_O[4]
*390 Tile_X0Y1_FrameData_O[5]
*391 Tile_X0Y1_FrameData_O[6]
*392 Tile_X0Y1_FrameData_O[7]
*393 Tile_X0Y1_FrameData_O[8]
*394 Tile_X0Y1_FrameData_O[9]
*395 Tile_X0Y1_FrameStrobe[0]
*396 Tile_X0Y1_FrameStrobe[10]
*397 Tile_X0Y1_FrameStrobe[11]
*398 Tile_X0Y1_FrameStrobe[12]
*399 Tile_X0Y1_FrameStrobe[13]
*400 Tile_X0Y1_FrameStrobe[14]
*401 Tile_X0Y1_FrameStrobe[15]
*402 Tile_X0Y1_FrameStrobe[16]
*403 Tile_X0Y1_FrameStrobe[17]
*404 Tile_X0Y1_FrameStrobe[18]
*405 Tile_X0Y1_FrameStrobe[19]
*406 Tile_X0Y1_FrameStrobe[1]
*407 Tile_X0Y1_FrameStrobe[2]
*408 Tile_X0Y1_FrameStrobe[3]
*409 Tile_X0Y1_FrameStrobe[4]
*410 Tile_X0Y1_FrameStrobe[5]
*411 Tile_X0Y1_FrameStrobe[6]
*412 Tile_X0Y1_FrameStrobe[7]
*413 Tile_X0Y1_FrameStrobe[8]
*414 Tile_X0Y1_FrameStrobe[9]
*415 Tile_X0Y1_N1END[0]
*416 Tile_X0Y1_N1END[1]
*417 Tile_X0Y1_N1END[2]
*418 Tile_X0Y1_N1END[3]
*419 Tile_X0Y1_N2END[0]
*420 Tile_X0Y1_N2END[1]
*421 Tile_X0Y1_N2END[2]
*422 Tile_X0Y1_N2END[3]
*423 Tile_X0Y1_N2END[4]
*424 Tile_X0Y1_N2END[5]
*425 Tile_X0Y1_N2END[6]
*426 Tile_X0Y1_N2END[7]
*427 Tile_X0Y1_N2MID[0]
*428 Tile_X0Y1_N2MID[1]
*429 Tile_X0Y1_N2MID[2]
*430 Tile_X0Y1_N2MID[3]
*431 Tile_X0Y1_N2MID[4]
*432 Tile_X0Y1_N2MID[5]
*433 Tile_X0Y1_N2MID[6]
*434 Tile_X0Y1_N2MID[7]
*435 Tile_X0Y1_N4END[0]
*436 Tile_X0Y1_N4END[10]
*437 Tile_X0Y1_N4END[11]
*438 Tile_X0Y1_N4END[12]
*439 Tile_X0Y1_N4END[13]
*440 Tile_X0Y1_N4END[14]
*441 Tile_X0Y1_N4END[15]
*442 Tile_X0Y1_N4END[1]
*443 Tile_X0Y1_N4END[2]
*444 Tile_X0Y1_N4END[3]
*445 Tile_X0Y1_N4END[4]
*446 Tile_X0Y1_N4END[5]
*447 Tile_X0Y1_N4END[6]
*448 Tile_X0Y1_N4END[7]
*449 Tile_X0Y1_N4END[8]
*450 Tile_X0Y1_N4END[9]
*451 Tile_X0Y1_S1BEG[0]
*452 Tile_X0Y1_S1BEG[1]
*453 Tile_X0Y1_S1BEG[2]
*454 Tile_X0Y1_S1BEG[3]
*455 Tile_X0Y1_S2BEG[0]
*456 Tile_X0Y1_S2BEG[1]
*457 Tile_X0Y1_S2BEG[2]
*458 Tile_X0Y1_S2BEG[3]
*459 Tile_X0Y1_S2BEG[4]
*460 Tile_X0Y1_S2BEG[5]
*461 Tile_X0Y1_S2BEG[6]
*462 Tile_X0Y1_S2BEG[7]
*463 Tile_X0Y1_S2BEGb[0]
*464 Tile_X0Y1_S2BEGb[1]
*465 Tile_X0Y1_S2BEGb[2]
*466 Tile_X0Y1_S2BEGb[3]
*467 Tile_X0Y1_S2BEGb[4]
*468 Tile_X0Y1_S2BEGb[5]
*469 Tile_X0Y1_S2BEGb[6]
*470 Tile_X0Y1_S2BEGb[7]
*471 Tile_X0Y1_S4BEG[0]
*472 Tile_X0Y1_S4BEG[10]
*473 Tile_X0Y1_S4BEG[11]
*474 Tile_X0Y1_S4BEG[12]
*475 Tile_X0Y1_S4BEG[13]
*476 Tile_X0Y1_S4BEG[14]
*477 Tile_X0Y1_S4BEG[15]
*478 Tile_X0Y1_S4BEG[1]
*479 Tile_X0Y1_S4BEG[2]
*480 Tile_X0Y1_S4BEG[3]
*481 Tile_X0Y1_S4BEG[4]
*482 Tile_X0Y1_S4BEG[5]
*483 Tile_X0Y1_S4BEG[6]
*484 Tile_X0Y1_S4BEG[7]
*485 Tile_X0Y1_S4BEG[8]
*486 Tile_X0Y1_S4BEG[9]
*487 Tile_X0Y1_UserCLK
*488 Tile_X0Y1_W1BEG[0]
*489 Tile_X0Y1_W1BEG[1]
*490 Tile_X0Y1_W1BEG[2]
*491 Tile_X0Y1_W1BEG[3]
*492 Tile_X0Y1_W2BEG[0]
*493 Tile_X0Y1_W2BEG[1]
*494 Tile_X0Y1_W2BEG[2]
*495 Tile_X0Y1_W2BEG[3]
*496 Tile_X0Y1_W2BEG[4]
*497 Tile_X0Y1_W2BEG[5]
*498 Tile_X0Y1_W2BEG[6]
*499 Tile_X0Y1_W2BEG[7]
*500 Tile_X0Y1_W2BEGb[0]
*501 Tile_X0Y1_W2BEGb[1]
*502 Tile_X0Y1_W2BEGb[2]
*503 Tile_X0Y1_W2BEGb[3]
*504 Tile_X0Y1_W2BEGb[4]
*505 Tile_X0Y1_W2BEGb[5]
*506 Tile_X0Y1_W2BEGb[6]
*507 Tile_X0Y1_W2BEGb[7]
*508 Tile_X0Y1_W6BEG[0]
*509 Tile_X0Y1_W6BEG[10]
*510 Tile_X0Y1_W6BEG[11]
*511 Tile_X0Y1_W6BEG[1]
*512 Tile_X0Y1_W6BEG[2]
*513 Tile_X0Y1_W6BEG[3]
*514 Tile_X0Y1_W6BEG[4]
*515 Tile_X0Y1_W6BEG[5]
*516 Tile_X0Y1_W6BEG[6]
*517 Tile_X0Y1_W6BEG[7]
*518 Tile_X0Y1_W6BEG[8]
*519 Tile_X0Y1_W6BEG[9]
*520 Tile_X0Y1_WW4BEG[0]
*521 Tile_X0Y1_WW4BEG[10]
*522 Tile_X0Y1_WW4BEG[11]
*523 Tile_X0Y1_WW4BEG[12]
*524 Tile_X0Y1_WW4BEG[13]
*525 Tile_X0Y1_WW4BEG[14]
*526 Tile_X0Y1_WW4BEG[15]
*527 Tile_X0Y1_WW4BEG[1]
*528 Tile_X0Y1_WW4BEG[2]
*529 Tile_X0Y1_WW4BEG[3]
*530 Tile_X0Y1_WW4BEG[4]
*531 Tile_X0Y1_WW4BEG[5]
*532 Tile_X0Y1_WW4BEG[6]
*533 Tile_X0Y1_WW4BEG[7]
*534 Tile_X0Y1_WW4BEG[8]
*535 Tile_X0Y1_WW4BEG[9]
*538 WEN_SRAM0
*539 WEN_SRAM1
*540 WEN_SRAM2
*541 WEN_SRAM3
*542 WEN_SRAM4
*543 WEN_SRAM5
*544 WEN_SRAM6
*545 WEN_SRAM7
*546 Tile_X0Y0_GF_SRAM_top\.Inst_GF_SRAM_top_ConfigMem\.Inst_frame0_bit0\.Q
*547 Tile_X0Y0_GF_SRAM_top\.Inst_GF_SRAM_top_ConfigMem\.Inst_frame0_bit1\.Q
*548 Tile_X0Y0_GF_SRAM_top\.Inst_GF_SRAM_top_ConfigMem\.Inst_frame0_bit10\.Q
*549 Tile_X0Y0_GF_SRAM_top\.Inst_GF_SRAM_top_ConfigMem\.Inst_frame0_bit11\.Q
*550 Tile_X0Y0_GF_SRAM_top\.Inst_GF_SRAM_top_ConfigMem\.Inst_frame0_bit12\.Q
*551 Tile_X0Y0_GF_SRAM_top\.Inst_GF_SRAM_top_ConfigMem\.Inst_frame0_bit13\.Q
*552 Tile_X0Y0_GF_SRAM_top\.Inst_GF_SRAM_top_ConfigMem\.Inst_frame0_bit14\.Q
*553 Tile_X0Y0_GF_SRAM_top\.Inst_GF_SRAM_top_ConfigMem\.Inst_frame0_bit15\.Q
*554 Tile_X0Y0_GF_SRAM_top\.Inst_GF_SRAM_top_ConfigMem\.Inst_frame0_bit16\.Q
*555 Tile_X0Y0_GF_SRAM_top\.Inst_GF_SRAM_top_ConfigMem\.Inst_frame0_bit17\.Q
*556 Tile_X0Y0_GF_SRAM_top\.Inst_GF_SRAM_top_ConfigMem\.Inst_frame0_bit18\.Q
*557 Tile_X0Y0_GF_SRAM_top\.Inst_GF_SRAM_top_ConfigMem\.Inst_frame0_bit19\.Q
*558 Tile_X0Y0_GF_SRAM_top\.Inst_GF_SRAM_top_ConfigMem\.Inst_frame0_bit2\.Q
*559 Tile_X0Y0_GF_SRAM_top\.Inst_GF_SRAM_top_ConfigMem\.Inst_frame0_bit20\.Q
*560 Tile_X0Y0_GF_SRAM_top\.Inst_GF_SRAM_top_ConfigMem\.Inst_frame0_bit21\.Q
*561 Tile_X0Y0_GF_SRAM_top\.Inst_GF_SRAM_top_ConfigMem\.Inst_frame0_bit22\.Q
*562 Tile_X0Y0_GF_SRAM_top\.Inst_GF_SRAM_top_ConfigMem\.Inst_frame0_bit23\.Q
*563 Tile_X0Y0_GF_SRAM_top\.Inst_GF_SRAM_top_ConfigMem\.Inst_frame0_bit24\.Q
*564 Tile_X0Y0_GF_SRAM_top\.Inst_GF_SRAM_top_ConfigMem\.Inst_frame0_bit25\.Q
*565 Tile_X0Y0_GF_SRAM_top\.Inst_GF_SRAM_top_ConfigMem\.Inst_frame0_bit26\.Q
*566 Tile_X0Y0_GF_SRAM_top\.Inst_GF_SRAM_top_ConfigMem\.Inst_frame0_bit27\.Q
*567 Tile_X0Y0_GF_SRAM_top\.Inst_GF_SRAM_top_ConfigMem\.Inst_frame0_bit28\.Q
*568 Tile_X0Y0_GF_SRAM_top\.Inst_GF_SRAM_top_ConfigMem\.Inst_frame0_bit29\.Q
*569 Tile_X0Y0_GF_SRAM_top\.Inst_GF_SRAM_top_ConfigMem\.Inst_frame0_bit3\.Q
*570 Tile_X0Y0_GF_SRAM_top\.Inst_GF_SRAM_top_ConfigMem\.Inst_frame0_bit30\.Q
*571 Tile_X0Y0_GF_SRAM_top\.Inst_GF_SRAM_top_ConfigMem\.Inst_frame0_bit31\.Q
*572 Tile_X0Y0_GF_SRAM_top\.Inst_GF_SRAM_top_ConfigMem\.Inst_frame0_bit4\.Q
*573 Tile_X0Y0_GF_SRAM_top\.Inst_GF_SRAM_top_ConfigMem\.Inst_frame0_bit5\.Q
*574 Tile_X0Y0_GF_SRAM_top\.Inst_GF_SRAM_top_ConfigMem\.Inst_frame0_bit6\.Q
*575 Tile_X0Y0_GF_SRAM_top\.Inst_GF_SRAM_top_ConfigMem\.Inst_frame0_bit7\.Q
*576 Tile_X0Y0_GF_SRAM_top\.Inst_GF_SRAM_top_ConfigMem\.Inst_frame0_bit8\.Q
*577 Tile_X0Y0_GF_SRAM_top\.Inst_GF_SRAM_top_ConfigMem\.Inst_frame0_bit9\.Q
*578 Tile_X0Y0_GF_SRAM_top\.Inst_GF_SRAM_top_ConfigMem\.Inst_frame1_bit0\.Q
*579 Tile_X0Y0_GF_SRAM_top\.Inst_GF_SRAM_top_ConfigMem\.Inst_frame1_bit1\.Q
*580 Tile_X0Y0_GF_SRAM_top\.Inst_GF_SRAM_top_ConfigMem\.Inst_frame1_bit10\.Q
*581 Tile_X0Y0_GF_SRAM_top\.Inst_GF_SRAM_top_ConfigMem\.Inst_frame1_bit11\.Q
*582 Tile_X0Y0_GF_SRAM_top\.Inst_GF_SRAM_top_ConfigMem\.Inst_frame1_bit12\.Q
*583 Tile_X0Y0_GF_SRAM_top\.Inst_GF_SRAM_top_ConfigMem\.Inst_frame1_bit13\.Q
*584 Tile_X0Y0_GF_SRAM_top\.Inst_GF_SRAM_top_ConfigMem\.Inst_frame1_bit14\.Q
*585 Tile_X0Y0_GF_SRAM_top\.Inst_GF_SRAM_top_ConfigMem\.Inst_frame1_bit15\.Q
*586 Tile_X0Y0_GF_SRAM_top\.Inst_GF_SRAM_top_ConfigMem\.Inst_frame1_bit16\.Q
*587 Tile_X0Y0_GF_SRAM_top\.Inst_GF_SRAM_top_ConfigMem\.Inst_frame1_bit17\.Q
*588 Tile_X0Y0_GF_SRAM_top\.Inst_GF_SRAM_top_ConfigMem\.Inst_frame1_bit18\.Q
*589 Tile_X0Y0_GF_SRAM_top\.Inst_GF_SRAM_top_ConfigMem\.Inst_frame1_bit19\.Q
*590 Tile_X0Y0_GF_SRAM_top\.Inst_GF_SRAM_top_ConfigMem\.Inst_frame1_bit2\.Q
*591 Tile_X0Y0_GF_SRAM_top\.Inst_GF_SRAM_top_ConfigMem\.Inst_frame1_bit20\.Q
*592 Tile_X0Y0_GF_SRAM_top\.Inst_GF_SRAM_top_ConfigMem\.Inst_frame1_bit21\.Q
*593 Tile_X0Y0_GF_SRAM_top\.Inst_GF_SRAM_top_ConfigMem\.Inst_frame1_bit22\.Q
*594 Tile_X0Y0_GF_SRAM_top\.Inst_GF_SRAM_top_ConfigMem\.Inst_frame1_bit23\.Q
*595 Tile_X0Y0_GF_SRAM_top\.Inst_GF_SRAM_top_ConfigMem\.Inst_frame1_bit24\.Q
*596 Tile_X0Y0_GF_SRAM_top\.Inst_GF_SRAM_top_ConfigMem\.Inst_frame1_bit25\.Q
*597 Tile_X0Y0_GF_SRAM_top\.Inst_GF_SRAM_top_ConfigMem\.Inst_frame1_bit26\.Q
*598 Tile_X0Y0_GF_SRAM_top\.Inst_GF_SRAM_top_ConfigMem\.Inst_frame1_bit27\.Q
*599 Tile_X0Y0_GF_SRAM_top\.Inst_GF_SRAM_top_ConfigMem\.Inst_frame1_bit28\.Q
*600 Tile_X0Y0_GF_SRAM_top\.Inst_GF_SRAM_top_ConfigMem\.Inst_frame1_bit29\.Q
*601 Tile_X0Y0_GF_SRAM_top\.Inst_GF_SRAM_top_ConfigMem\.Inst_frame1_bit3\.Q
*602 Tile_X0Y0_GF_SRAM_top\.Inst_GF_SRAM_top_ConfigMem\.Inst_frame1_bit30\.Q
*603 Tile_X0Y0_GF_SRAM_top\.Inst_GF_SRAM_top_ConfigMem\.Inst_frame1_bit31\.Q
*604 Tile_X0Y0_GF_SRAM_top\.Inst_GF_SRAM_top_ConfigMem\.Inst_frame1_bit4\.Q
*605 Tile_X0Y0_GF_SRAM_top\.Inst_GF_SRAM_top_ConfigMem\.Inst_frame1_bit5\.Q
*606 Tile_X0Y0_GF_SRAM_top\.Inst_GF_SRAM_top_ConfigMem\.Inst_frame1_bit6\.Q
*607 Tile_X0Y0_GF_SRAM_top\.Inst_GF_SRAM_top_ConfigMem\.Inst_frame1_bit7\.Q
*608 Tile_X0Y0_GF_SRAM_top\.Inst_GF_SRAM_top_ConfigMem\.Inst_frame1_bit8\.Q
*609 Tile_X0Y0_GF_SRAM_top\.Inst_GF_SRAM_top_ConfigMem\.Inst_frame1_bit9\.Q
*610 Tile_X0Y0_GF_SRAM_top\.Inst_GF_SRAM_top_ConfigMem\.Inst_frame2_bit0\.Q
*611 Tile_X0Y0_GF_SRAM_top\.Inst_GF_SRAM_top_ConfigMem\.Inst_frame2_bit1\.Q
*612 Tile_X0Y0_GF_SRAM_top\.Inst_GF_SRAM_top_ConfigMem\.Inst_frame2_bit10\.Q
*613 Tile_X0Y0_GF_SRAM_top\.Inst_GF_SRAM_top_ConfigMem\.Inst_frame2_bit11\.Q
*614 Tile_X0Y0_GF_SRAM_top\.Inst_GF_SRAM_top_ConfigMem\.Inst_frame2_bit12\.Q
*615 Tile_X0Y0_GF_SRAM_top\.Inst_GF_SRAM_top_ConfigMem\.Inst_frame2_bit13\.Q
*616 Tile_X0Y0_GF_SRAM_top\.Inst_GF_SRAM_top_ConfigMem\.Inst_frame2_bit14\.Q
*617 Tile_X0Y0_GF_SRAM_top\.Inst_GF_SRAM_top_ConfigMem\.Inst_frame2_bit15\.Q
*618 Tile_X0Y0_GF_SRAM_top\.Inst_GF_SRAM_top_ConfigMem\.Inst_frame2_bit16\.Q
*619 Tile_X0Y0_GF_SRAM_top\.Inst_GF_SRAM_top_ConfigMem\.Inst_frame2_bit17\.Q
*620 Tile_X0Y0_GF_SRAM_top\.Inst_GF_SRAM_top_ConfigMem\.Inst_frame2_bit18\.Q
*621 Tile_X0Y0_GF_SRAM_top\.Inst_GF_SRAM_top_ConfigMem\.Inst_frame2_bit19\.Q
*622 Tile_X0Y0_GF_SRAM_top\.Inst_GF_SRAM_top_ConfigMem\.Inst_frame2_bit2\.Q
*623 Tile_X0Y0_GF_SRAM_top\.Inst_GF_SRAM_top_ConfigMem\.Inst_frame2_bit20\.Q
*624 Tile_X0Y0_GF_SRAM_top\.Inst_GF_SRAM_top_ConfigMem\.Inst_frame2_bit21\.Q
*625 Tile_X0Y0_GF_SRAM_top\.Inst_GF_SRAM_top_ConfigMem\.Inst_frame2_bit22\.Q
*626 Tile_X0Y0_GF_SRAM_top\.Inst_GF_SRAM_top_ConfigMem\.Inst_frame2_bit23\.Q
*627 Tile_X0Y0_GF_SRAM_top\.Inst_GF_SRAM_top_ConfigMem\.Inst_frame2_bit24\.Q
*628 Tile_X0Y0_GF_SRAM_top\.Inst_GF_SRAM_top_ConfigMem\.Inst_frame2_bit25\.Q
*629 Tile_X0Y0_GF_SRAM_top\.Inst_GF_SRAM_top_ConfigMem\.Inst_frame2_bit26\.Q
*630 Tile_X0Y0_GF_SRAM_top\.Inst_GF_SRAM_top_ConfigMem\.Inst_frame2_bit27\.Q
*631 Tile_X0Y0_GF_SRAM_top\.Inst_GF_SRAM_top_ConfigMem\.Inst_frame2_bit28\.Q
*632 Tile_X0Y0_GF_SRAM_top\.Inst_GF_SRAM_top_ConfigMem\.Inst_frame2_bit29\.Q
*633 Tile_X0Y0_GF_SRAM_top\.Inst_GF_SRAM_top_ConfigMem\.Inst_frame2_bit3\.Q
*634 Tile_X0Y0_GF_SRAM_top\.Inst_GF_SRAM_top_ConfigMem\.Inst_frame2_bit30\.Q
*635 Tile_X0Y0_GF_SRAM_top\.Inst_GF_SRAM_top_ConfigMem\.Inst_frame2_bit31\.Q
*636 Tile_X0Y0_GF_SRAM_top\.Inst_GF_SRAM_top_ConfigMem\.Inst_frame2_bit4\.Q
*637 Tile_X0Y0_GF_SRAM_top\.Inst_GF_SRAM_top_ConfigMem\.Inst_frame2_bit5\.Q
*638 Tile_X0Y0_GF_SRAM_top\.Inst_GF_SRAM_top_ConfigMem\.Inst_frame2_bit6\.Q
*639 Tile_X0Y0_GF_SRAM_top\.Inst_GF_SRAM_top_ConfigMem\.Inst_frame2_bit7\.Q
*640 Tile_X0Y0_GF_SRAM_top\.Inst_GF_SRAM_top_ConfigMem\.Inst_frame2_bit8\.Q
*641 Tile_X0Y0_GF_SRAM_top\.Inst_GF_SRAM_top_ConfigMem\.Inst_frame2_bit9\.Q
*642 Tile_X0Y0_GF_SRAM_top\.Inst_GF_SRAM_top_ConfigMem\.Inst_frame3_bit0\.Q
*643 Tile_X0Y0_GF_SRAM_top\.Inst_GF_SRAM_top_ConfigMem\.Inst_frame3_bit1\.Q
*644 Tile_X0Y0_GF_SRAM_top\.Inst_GF_SRAM_top_ConfigMem\.Inst_frame3_bit10\.Q
*645 Tile_X0Y0_GF_SRAM_top\.Inst_GF_SRAM_top_ConfigMem\.Inst_frame3_bit11\.Q
*646 Tile_X0Y0_GF_SRAM_top\.Inst_GF_SRAM_top_ConfigMem\.Inst_frame3_bit12\.Q
*647 Tile_X0Y0_GF_SRAM_top\.Inst_GF_SRAM_top_ConfigMem\.Inst_frame3_bit13\.Q
*648 Tile_X0Y0_GF_SRAM_top\.Inst_GF_SRAM_top_ConfigMem\.Inst_frame3_bit14\.Q
*649 Tile_X0Y0_GF_SRAM_top\.Inst_GF_SRAM_top_ConfigMem\.Inst_frame3_bit15\.Q
*650 Tile_X0Y0_GF_SRAM_top\.Inst_GF_SRAM_top_ConfigMem\.Inst_frame3_bit16\.Q
*651 Tile_X0Y0_GF_SRAM_top\.Inst_GF_SRAM_top_ConfigMem\.Inst_frame3_bit17\.Q
*652 Tile_X0Y0_GF_SRAM_top\.Inst_GF_SRAM_top_ConfigMem\.Inst_frame3_bit18\.Q
*653 Tile_X0Y0_GF_SRAM_top\.Inst_GF_SRAM_top_ConfigMem\.Inst_frame3_bit19\.Q
*654 Tile_X0Y0_GF_SRAM_top\.Inst_GF_SRAM_top_ConfigMem\.Inst_frame3_bit2\.Q
*655 Tile_X0Y0_GF_SRAM_top\.Inst_GF_SRAM_top_ConfigMem\.Inst_frame3_bit20\.Q
*656 Tile_X0Y0_GF_SRAM_top\.Inst_GF_SRAM_top_ConfigMem\.Inst_frame3_bit21\.Q
*657 Tile_X0Y0_GF_SRAM_top\.Inst_GF_SRAM_top_ConfigMem\.Inst_frame3_bit22\.Q
*658 Tile_X0Y0_GF_SRAM_top\.Inst_GF_SRAM_top_ConfigMem\.Inst_frame3_bit23\.Q
*659 Tile_X0Y0_GF_SRAM_top\.Inst_GF_SRAM_top_ConfigMem\.Inst_frame3_bit24\.Q
*660 Tile_X0Y0_GF_SRAM_top\.Inst_GF_SRAM_top_ConfigMem\.Inst_frame3_bit25\.Q
*661 Tile_X0Y0_GF_SRAM_top\.Inst_GF_SRAM_top_ConfigMem\.Inst_frame3_bit26\.Q
*662 Tile_X0Y0_GF_SRAM_top\.Inst_GF_SRAM_top_ConfigMem\.Inst_frame3_bit27\.Q
*663 Tile_X0Y0_GF_SRAM_top\.Inst_GF_SRAM_top_ConfigMem\.Inst_frame3_bit28\.Q
*664 Tile_X0Y0_GF_SRAM_top\.Inst_GF_SRAM_top_ConfigMem\.Inst_frame3_bit29\.Q
*665 Tile_X0Y0_GF_SRAM_top\.Inst_GF_SRAM_top_ConfigMem\.Inst_frame3_bit3\.Q
*666 Tile_X0Y0_GF_SRAM_top\.Inst_GF_SRAM_top_ConfigMem\.Inst_frame3_bit30\.Q
*667 Tile_X0Y0_GF_SRAM_top\.Inst_GF_SRAM_top_ConfigMem\.Inst_frame3_bit31\.Q
*668 Tile_X0Y0_GF_SRAM_top\.Inst_GF_SRAM_top_ConfigMem\.Inst_frame3_bit4\.Q
*669 Tile_X0Y0_GF_SRAM_top\.Inst_GF_SRAM_top_ConfigMem\.Inst_frame3_bit5\.Q
*670 Tile_X0Y0_GF_SRAM_top\.Inst_GF_SRAM_top_ConfigMem\.Inst_frame3_bit6\.Q
*671 Tile_X0Y0_GF_SRAM_top\.Inst_GF_SRAM_top_ConfigMem\.Inst_frame3_bit7\.Q
*672 Tile_X0Y0_GF_SRAM_top\.Inst_GF_SRAM_top_ConfigMem\.Inst_frame3_bit8\.Q
*673 Tile_X0Y0_GF_SRAM_top\.Inst_GF_SRAM_top_ConfigMem\.Inst_frame3_bit9\.Q
*674 Tile_X0Y0_GF_SRAM_top\.Inst_GF_SRAM_top_ConfigMem\.Inst_frame4_bit0\.Q
*675 Tile_X0Y0_GF_SRAM_top\.Inst_GF_SRAM_top_ConfigMem\.Inst_frame4_bit1\.Q
*676 Tile_X0Y0_GF_SRAM_top\.Inst_GF_SRAM_top_ConfigMem\.Inst_frame4_bit10\.Q
*677 Tile_X0Y0_GF_SRAM_top\.Inst_GF_SRAM_top_ConfigMem\.Inst_frame4_bit11\.Q
*678 Tile_X0Y0_GF_SRAM_top\.Inst_GF_SRAM_top_ConfigMem\.Inst_frame4_bit12\.Q
*679 Tile_X0Y0_GF_SRAM_top\.Inst_GF_SRAM_top_ConfigMem\.Inst_frame4_bit13\.Q
*680 Tile_X0Y0_GF_SRAM_top\.Inst_GF_SRAM_top_ConfigMem\.Inst_frame4_bit14\.Q
*681 Tile_X0Y0_GF_SRAM_top\.Inst_GF_SRAM_top_ConfigMem\.Inst_frame4_bit15\.Q
*682 Tile_X0Y0_GF_SRAM_top\.Inst_GF_SRAM_top_ConfigMem\.Inst_frame4_bit16\.Q
*683 Tile_X0Y0_GF_SRAM_top\.Inst_GF_SRAM_top_ConfigMem\.Inst_frame4_bit17\.Q
*684 Tile_X0Y0_GF_SRAM_top\.Inst_GF_SRAM_top_ConfigMem\.Inst_frame4_bit18\.Q
*685 Tile_X0Y0_GF_SRAM_top\.Inst_GF_SRAM_top_ConfigMem\.Inst_frame4_bit19\.Q
*686 Tile_X0Y0_GF_SRAM_top\.Inst_GF_SRAM_top_ConfigMem\.Inst_frame4_bit2\.Q
*687 Tile_X0Y0_GF_SRAM_top\.Inst_GF_SRAM_top_ConfigMem\.Inst_frame4_bit20\.Q
*688 Tile_X0Y0_GF_SRAM_top\.Inst_GF_SRAM_top_ConfigMem\.Inst_frame4_bit21\.Q
*689 Tile_X0Y0_GF_SRAM_top\.Inst_GF_SRAM_top_ConfigMem\.Inst_frame4_bit22\.Q
*690 Tile_X0Y0_GF_SRAM_top\.Inst_GF_SRAM_top_ConfigMem\.Inst_frame4_bit23\.Q
*691 Tile_X0Y0_GF_SRAM_top\.Inst_GF_SRAM_top_ConfigMem\.Inst_frame4_bit24\.Q
*692 Tile_X0Y0_GF_SRAM_top\.Inst_GF_SRAM_top_ConfigMem\.Inst_frame4_bit25\.Q
*693 Tile_X0Y0_GF_SRAM_top\.Inst_GF_SRAM_top_ConfigMem\.Inst_frame4_bit26\.Q
*694 Tile_X0Y0_GF_SRAM_top\.Inst_GF_SRAM_top_ConfigMem\.Inst_frame4_bit27\.Q
*695 Tile_X0Y0_GF_SRAM_top\.Inst_GF_SRAM_top_ConfigMem\.Inst_frame4_bit28\.Q
*696 Tile_X0Y0_GF_SRAM_top\.Inst_GF_SRAM_top_ConfigMem\.Inst_frame4_bit29\.Q
*697 Tile_X0Y0_GF_SRAM_top\.Inst_GF_SRAM_top_ConfigMem\.Inst_frame4_bit3\.Q
*698 Tile_X0Y0_GF_SRAM_top\.Inst_GF_SRAM_top_ConfigMem\.Inst_frame4_bit30\.Q
*699 Tile_X0Y0_GF_SRAM_top\.Inst_GF_SRAM_top_ConfigMem\.Inst_frame4_bit31\.Q
*700 Tile_X0Y0_GF_SRAM_top\.Inst_GF_SRAM_top_ConfigMem\.Inst_frame4_bit4\.Q
*701 Tile_X0Y0_GF_SRAM_top\.Inst_GF_SRAM_top_ConfigMem\.Inst_frame4_bit5\.Q
*702 Tile_X0Y0_GF_SRAM_top\.Inst_GF_SRAM_top_ConfigMem\.Inst_frame4_bit6\.Q
*703 Tile_X0Y0_GF_SRAM_top\.Inst_GF_SRAM_top_ConfigMem\.Inst_frame4_bit7\.Q
*704 Tile_X0Y0_GF_SRAM_top\.Inst_GF_SRAM_top_ConfigMem\.Inst_frame4_bit8\.Q
*705 Tile_X0Y0_GF_SRAM_top\.Inst_GF_SRAM_top_ConfigMem\.Inst_frame4_bit9\.Q
*706 Tile_X0Y0_GF_SRAM_top\.Inst_GF_SRAM_top_ConfigMem\.Inst_frame5_bit0\.Q
*707 Tile_X0Y0_GF_SRAM_top\.Inst_GF_SRAM_top_ConfigMem\.Inst_frame5_bit1\.Q
*708 Tile_X0Y0_GF_SRAM_top\.Inst_GF_SRAM_top_ConfigMem\.Inst_frame5_bit10\.Q
*709 Tile_X0Y0_GF_SRAM_top\.Inst_GF_SRAM_top_ConfigMem\.Inst_frame5_bit11\.Q
*710 Tile_X0Y0_GF_SRAM_top\.Inst_GF_SRAM_top_ConfigMem\.Inst_frame5_bit12\.Q
*711 Tile_X0Y0_GF_SRAM_top\.Inst_GF_SRAM_top_ConfigMem\.Inst_frame5_bit13\.Q
*712 Tile_X0Y0_GF_SRAM_top\.Inst_GF_SRAM_top_ConfigMem\.Inst_frame5_bit14\.Q
*713 Tile_X0Y0_GF_SRAM_top\.Inst_GF_SRAM_top_ConfigMem\.Inst_frame5_bit15\.Q
*714 Tile_X0Y0_GF_SRAM_top\.Inst_GF_SRAM_top_ConfigMem\.Inst_frame5_bit16\.Q
*715 Tile_X0Y0_GF_SRAM_top\.Inst_GF_SRAM_top_ConfigMem\.Inst_frame5_bit17\.Q
*716 Tile_X0Y0_GF_SRAM_top\.Inst_GF_SRAM_top_ConfigMem\.Inst_frame5_bit18\.Q
*717 Tile_X0Y0_GF_SRAM_top\.Inst_GF_SRAM_top_ConfigMem\.Inst_frame5_bit19\.Q
*718 Tile_X0Y0_GF_SRAM_top\.Inst_GF_SRAM_top_ConfigMem\.Inst_frame5_bit2\.Q
*719 Tile_X0Y0_GF_SRAM_top\.Inst_GF_SRAM_top_ConfigMem\.Inst_frame5_bit20\.Q
*720 Tile_X0Y0_GF_SRAM_top\.Inst_GF_SRAM_top_ConfigMem\.Inst_frame5_bit21\.Q
*721 Tile_X0Y0_GF_SRAM_top\.Inst_GF_SRAM_top_ConfigMem\.Inst_frame5_bit22\.Q
*722 Tile_X0Y0_GF_SRAM_top\.Inst_GF_SRAM_top_ConfigMem\.Inst_frame5_bit23\.Q
*723 Tile_X0Y0_GF_SRAM_top\.Inst_GF_SRAM_top_ConfigMem\.Inst_frame5_bit24\.Q
*724 Tile_X0Y0_GF_SRAM_top\.Inst_GF_SRAM_top_ConfigMem\.Inst_frame5_bit25\.Q
*725 Tile_X0Y0_GF_SRAM_top\.Inst_GF_SRAM_top_ConfigMem\.Inst_frame5_bit26\.Q
*726 Tile_X0Y0_GF_SRAM_top\.Inst_GF_SRAM_top_ConfigMem\.Inst_frame5_bit27\.Q
*727 Tile_X0Y0_GF_SRAM_top\.Inst_GF_SRAM_top_ConfigMem\.Inst_frame5_bit28\.Q
*728 Tile_X0Y0_GF_SRAM_top\.Inst_GF_SRAM_top_ConfigMem\.Inst_frame5_bit29\.Q
*729 Tile_X0Y0_GF_SRAM_top\.Inst_GF_SRAM_top_ConfigMem\.Inst_frame5_bit3\.Q
*730 Tile_X0Y0_GF_SRAM_top\.Inst_GF_SRAM_top_ConfigMem\.Inst_frame5_bit30\.Q
*731 Tile_X0Y0_GF_SRAM_top\.Inst_GF_SRAM_top_ConfigMem\.Inst_frame5_bit31\.Q
*732 Tile_X0Y0_GF_SRAM_top\.Inst_GF_SRAM_top_ConfigMem\.Inst_frame5_bit4\.Q
*733 Tile_X0Y0_GF_SRAM_top\.Inst_GF_SRAM_top_ConfigMem\.Inst_frame5_bit5\.Q
*734 Tile_X0Y0_GF_SRAM_top\.Inst_GF_SRAM_top_ConfigMem\.Inst_frame5_bit6\.Q
*735 Tile_X0Y0_GF_SRAM_top\.Inst_GF_SRAM_top_ConfigMem\.Inst_frame5_bit7\.Q
*736 Tile_X0Y0_GF_SRAM_top\.Inst_GF_SRAM_top_ConfigMem\.Inst_frame5_bit8\.Q
*737 Tile_X0Y0_GF_SRAM_top\.Inst_GF_SRAM_top_ConfigMem\.Inst_frame5_bit9\.Q
*738 Tile_X0Y0_GF_SRAM_top\.Inst_GF_SRAM_top_ConfigMem\.Inst_frame6_bit0\.Q
*739 Tile_X0Y0_GF_SRAM_top\.Inst_GF_SRAM_top_ConfigMem\.Inst_frame6_bit1\.Q
*740 Tile_X0Y0_GF_SRAM_top\.Inst_GF_SRAM_top_ConfigMem\.Inst_frame6_bit10\.Q
*741 Tile_X0Y0_GF_SRAM_top\.Inst_GF_SRAM_top_ConfigMem\.Inst_frame6_bit11\.Q
*742 Tile_X0Y0_GF_SRAM_top\.Inst_GF_SRAM_top_ConfigMem\.Inst_frame6_bit12\.Q
*743 Tile_X0Y0_GF_SRAM_top\.Inst_GF_SRAM_top_ConfigMem\.Inst_frame6_bit13\.Q
*744 Tile_X0Y0_GF_SRAM_top\.Inst_GF_SRAM_top_ConfigMem\.Inst_frame6_bit14\.Q
*745 Tile_X0Y0_GF_SRAM_top\.Inst_GF_SRAM_top_ConfigMem\.Inst_frame6_bit15\.Q
*746 Tile_X0Y0_GF_SRAM_top\.Inst_GF_SRAM_top_ConfigMem\.Inst_frame6_bit16\.Q
*747 Tile_X0Y0_GF_SRAM_top\.Inst_GF_SRAM_top_ConfigMem\.Inst_frame6_bit17\.Q
*748 Tile_X0Y0_GF_SRAM_top\.Inst_GF_SRAM_top_ConfigMem\.Inst_frame6_bit18\.Q
*749 Tile_X0Y0_GF_SRAM_top\.Inst_GF_SRAM_top_ConfigMem\.Inst_frame6_bit19\.Q
*750 Tile_X0Y0_GF_SRAM_top\.Inst_GF_SRAM_top_ConfigMem\.Inst_frame6_bit2\.Q
*751 Tile_X0Y0_GF_SRAM_top\.Inst_GF_SRAM_top_ConfigMem\.Inst_frame6_bit20\.Q
*752 Tile_X0Y0_GF_SRAM_top\.Inst_GF_SRAM_top_ConfigMem\.Inst_frame6_bit21\.Q