*SPEF "ieee 1481-1999"
*DESIGN "S_term_DSP"
*DATE "11:04:21 Friday November 28, 2025"
*VENDOR "The OpenROAD Project"
*PROGRAM "OpenROAD"
*VERSION "341650e72dad0dc8571822ff8c5d9c5e365327f7"
*DESIGN_FLOW "NAME_SCOPE LOCAL" "PIN_CAP NONE"
*DIVIDER /
*DELIMITER :
*BUS_DELIMITER []
*T_UNIT 1 NS
*C_UNIT 1 PF
*R_UNIT 1 OHM
*L_UNIT 1 HENRY

*NAME_MAP
*1 FrameData[0]
*2 FrameData[10]
*3 FrameData[11]
*4 FrameData[12]
*5 FrameData[13]
*6 FrameData[14]
*7 FrameData[15]
*8 FrameData[16]
*9 FrameData[17]
*10 FrameData[18]
*11 FrameData[19]
*12 FrameData[1]
*13 FrameData[20]
*14 FrameData[21]
*15 FrameData[22]
*16 FrameData[23]
*17 FrameData[24]
*18 FrameData[25]
*19 FrameData[26]
*20 FrameData[27]
*21 FrameData[28]
*22 FrameData[29]
*23 FrameData[2]
*24 FrameData[30]
*25 FrameData[31]
*26 FrameData[3]
*27 FrameData[4]
*28 FrameData[5]
*29 FrameData[6]
*30 FrameData[7]
*31 FrameData[8]
*32 FrameData[9]
*33 FrameData_O[0]
*34 FrameData_O[10]
*35 FrameData_O[11]
*36 FrameData_O[12]
*37 FrameData_O[13]
*38 FrameData_O[14]
*39 FrameData_O[15]
*40 FrameData_O[16]
*41 FrameData_O[17]
*42 FrameData_O[18]
*43 FrameData_O[19]
*44 FrameData_O[1]
*45 FrameData_O[20]
*46 FrameData_O[21]
*47 FrameData_O[22]
*48 FrameData_O[23]
*49 FrameData_O[24]
*50 FrameData_O[25]
*51 FrameData_O[26]
*52 FrameData_O[27]
*53 FrameData_O[28]
*54 FrameData_O[29]
*55 FrameData_O[2]
*56 FrameData_O[30]
*57 FrameData_O[31]
*58 FrameData_O[3]
*59 FrameData_O[4]
*60 FrameData_O[5]
*61 FrameData_O[6]
*62 FrameData_O[7]
*63 FrameData_O[8]
*64 FrameData_O[9]
*65 FrameStrobe[0]
*66 FrameStrobe[10]
*67 FrameStrobe[11]
*68 FrameStrobe[12]
*69 FrameStrobe[13]
*70 FrameStrobe[14]
*71 FrameStrobe[15]
*72 FrameStrobe[16]
*73 FrameStrobe[17]
*74 FrameStrobe[18]
*75 FrameStrobe[19]
*76 FrameStrobe[1]
*77 FrameStrobe[2]
*78 FrameStrobe[3]
*79 FrameStrobe[4]
*80 FrameStrobe[5]
*81 FrameStrobe[6]
*82 FrameStrobe[7]
*83 FrameStrobe[8]
*84 FrameStrobe[9]
*85 FrameStrobe_O[0]
*86 FrameStrobe_O[10]
*87 FrameStrobe_O[11]
*88 FrameStrobe_O[12]
*89 FrameStrobe_O[13]
*90 FrameStrobe_O[14]
*91 FrameStrobe_O[15]
*92 FrameStrobe_O[16]
*93 FrameStrobe_O[17]
*94 FrameStrobe_O[18]
*95 FrameStrobe_O[19]
*96 FrameStrobe_O[1]
*97 FrameStrobe_O[2]
*98 FrameStrobe_O[3]
*99 FrameStrobe_O[4]
*100 FrameStrobe_O[5]
*101 FrameStrobe_O[6]
*102 FrameStrobe_O[7]
*103 FrameStrobe_O[8]
*104 FrameStrobe_O[9]
*105 N1BEG[0]
*106 N1BEG[1]
*107 N1BEG[2]
*108 N1BEG[3]
*109 N2BEG[0]
*110 N2BEG[1]
*111 N2BEG[2]
*112 N2BEG[3]
*113 N2BEG[4]
*114 N2BEG[5]
*115 N2BEG[6]
*116 N2BEG[7]
*117 N2BEGb[0]
*118 N2BEGb[1]
*119 N2BEGb[2]
*120 N2BEGb[3]
*121 N2BEGb[4]
*122 N2BEGb[5]
*123 N2BEGb[6]
*124 N2BEGb[7]
*125 N4BEG[0]
*126 N4BEG[10]
*127 N4BEG[11]
*128 N4BEG[12]
*129 N4BEG[13]
*130 N4BEG[14]
*131 N4BEG[15]
*132 N4BEG[1]
*133 N4BEG[2]
*134 N4BEG[3]
*135 N4BEG[4]
*136 N4BEG[5]
*137 N4BEG[6]
*138 N4BEG[7]
*139 N4BEG[8]
*140 N4BEG[9]
*141 NN4BEG[0]
*142 NN4BEG[10]
*143 NN4BEG[11]
*144 NN4BEG[12]
*145 NN4BEG[13]
*146 NN4BEG[14]
*147 NN4BEG[15]
*148 NN4BEG[1]
*149 NN4BEG[2]
*150 NN4BEG[3]
*151 NN4BEG[4]
*152 NN4BEG[5]
*153 NN4BEG[6]
*154 NN4BEG[7]
*155 NN4BEG[8]
*156 NN4BEG[9]
*157 S1END[0]
*158 S1END[1]
*159 S1END[2]
*160 S1END[3]
*161 S2END[0]
*162 S2END[1]
*163 S2END[2]
*164 S2END[3]
*165 S2END[4]
*166 S2END[5]
*167 S2END[6]
*168 S2END[7]
*169 S2MID[0]
*170 S2MID[1]
*171 S2MID[2]
*172 S2MID[3]
*173 S2MID[4]
*174 S2MID[5]
*175 S2MID[6]
*176 S2MID[7]
*177 S4END[0]
*178 S4END[10]
*179 S4END[11]
*180 S4END[12]
*181 S4END[13]
*182 S4END[14]
*183 S4END[15]
*184 S4END[1]
*185 S4END[2]
*186 S4END[3]
*187 S4END[4]
*188 S4END[5]
*189 S4END[6]
*190 S4END[7]
*191 S4END[8]
*192 S4END[9]
*193 SS4END[0]
*194 SS4END[10]
*195 SS4END[11]
*196 SS4END[12]
*197 SS4END[13]
*198 SS4END[14]
*199 SS4END[15]
*200 SS4END[1]
*201 SS4END[2]
*202 SS4END[3]
*203 SS4END[4]
*204 SS4END[5]
*205 SS4END[6]
*206 SS4END[7]
*207 SS4END[8]
*208 SS4END[9]
*209 UserCLK
*210 UserCLKo
*213 net1
*214 net10
*215 net100
*216 net101
*217 net102
*218 net103
*219 net104
*220 net105
*221 net11
*222 net12
*223 net13
*224 net14
*225 net15
*226 net16
*227 net17
*228 net18
*229 net19
*230 net2
*231 net20
*232 net21
*233 net22
*234 net23
*235 net24
*236 net25
*237 net26
*238 net27
*239 net28
*240 net29
*241 net3
*242 net30
*243 net31
*244 net32
*245 net33
*246 net34
*247 net35
*248 net36
*249 net37
*250 net38
*251 net39
*252 net4
*253 net40
*254 net41
*255 net42
*256 net43
*257 net44
*258 net45
*259 net46
*260 net47
*261 net48
*262 net49
*263 net5
*264 net50
*265 net51
*266 net52
*267 net53
*268 net54
*269 net55
*270 net56
*271 net57
*272 net58
*273 net59
*274 net6
*275 net60
*276 net61
*277 net62
*278 net63
*279 net64
*280 net65
*281 net66
*282 net67
*283 net68
*284 net69
*285 net7
*286 net70
*287 net71
*288 net72
*289 net73
*290 net74
*291 net75
*292 net76
*293 net77
*294 net78
*295 net79
*296 net8
*297 net80
*298 net81
*299 net82
*300 net83
*301 net84
*302 net85
*303 net86
*304 net87
*305 net88
*306 net89
*307 net9
*308 net90
*309 net91
*310 net92
*311 net93
*312 net94
*313 net95
*314 net96
*315 net97
*316 net98
*317 net99
*318 FILLER_0_104
*319 FILLER_0_138
*320 FILLER_0_172
*321 FILLER_0_182
*322 FILLER_0_198
*323 FILLER_0_2
*324 FILLER_0_202
*325 FILLER_0_206
*326 FILLER_0_240
*327 FILLER_0_274
*328 FILLER_0_308
*329 FILLER_0_342
*330 FILLER_0_36
*331 FILLER_0_376
*332 FILLER_0_410
*333 FILLER_0_444
*334 FILLER_0_454
*335 FILLER_0_456
*336 FILLER_0_70
*337 FILLER_10_107
*338 FILLER_10_199
*339 FILLER_10_2
*340 FILLER_10_207
*341 FILLER_10_209
*342 FILLER_10_226
*343 FILLER_10_242
*344 FILLER_10_244
*345 FILLER_10_247
*346 FILLER_10_311
*347 FILLER_10_317
*348 FILLER_10_333
*349 FILLER_10_34
*350 FILLER_10_345
*351 FILLER_10_363
*352 FILLER_10_37
*353 FILLER_10_379
*354 FILLER_10_383
*355 FILLER_10_387
*356 FILLER_10_53
*357 FILLER_10_61
*358 FILLER_10_65
*359 FILLER_10_67
*360 FILLER_10_76
*361 FILLER_10_84
*362 FILLER_10_88
*363 FILLER_10_90
*364 FILLER_11_142
*365 FILLER_11_144
*366 FILLER_11_2
*367 FILLER_11_201
*368 FILLER_11_209
*369 FILLER_11_220
*370 FILLER_11_224
*371 FILLER_11_226
*372 FILLER_11_235
*373 FILLER_11_243
*374 FILLER_11_275
*375 FILLER_11_279
*376 FILLER_11_282
*377 FILLER_11_298
*378 FILLER_11_300
*379 FILLER_11_309
*380 FILLER_11_313
*381 FILLER_11_315
*382 FILLER_11_324
*383 FILLER_11_332
*384 FILLER_11_334
*385 FILLER_11_349
*386 FILLER_11_374
*387 FILLER_11_382
*388 FILLER_11_384
*389 FILLER_11_401
*390 FILLER_11_417
*391 FILLER_11_419
*392 FILLER_11_422
*393 FILLER_11_426
*394 FILLER_11_428
*395 FILLER_11_66
*396 FILLER_11_80
*397 FILLER_11_96
*398 FILLER_12_107
*399 FILLER_12_115
*400 FILLER_12_15
*401 FILLER_12_177
*402 FILLER_12_181
*403 FILLER_12_2
*404 FILLER_12_211
*405 FILLER_12_227
*406 FILLER_12_244
*407 FILLER_12_247
*408 FILLER_12_31
*409 FILLER_12_311
*410 FILLER_12_317
*411 FILLER_12_37
*412 FILLER_12_381
*413 FILLER_12_387
*414 FILLER_12_6
*415 FILLER_12_69
*416 FILLER_13_142
*417 FILLER_13_2
*418 FILLER_13_220
*419 FILLER_13_236
*420 FILLER_13_240
*421 FILLER_13_250
*422 FILLER_13_266
*423 FILLER_13_274
*424 FILLER_13_278
*425 FILLER_13_282
*426 FILLER_13_314
*427 FILLER_13_318
*428 FILLER_13_34
*429 FILLER_13_347
*430 FILLER_13_349
*431 FILLER_13_38
*432 FILLER_13_380
*433 FILLER_13_412
*434 FILLER_13_422
*435 FILLER_13_426
*436 FILLER_13_428
*437 FILLER_13_56
*438 FILLER_13_64
*439 FILLER_13_68
*440 FILLER_13_72
*441 FILLER_13_80
*442 FILLER_14_10
*443 FILLER_14_115
*444 FILLER_14_14
*445 FILLER_14_2
*446 FILLER_14_219
*447 FILLER_14_227
*448 FILLER_14_239
*449 FILLER_14_24
*450 FILLER_14_243
*451 FILLER_14_263
*452 FILLER_14_265
*453 FILLER_14_274
*454 FILLER_14_306
*455 FILLER_14_314
*456 FILLER_14_32
*457 FILLER_14_34
*458 FILLER_14_37
*459 FILLER_14_381
*460 FILLER_14_387
*461 FILLER_14_403
*462 FILLER_14_41
*463 FILLER_14_411
*464 FILLER_14_43
*465 FILLER_14_52
*466 FILLER_14_69
*467 FILLER_15_104
*468 FILLER_15_138
*469 FILLER_15_172
*470 FILLER_15_2
*471 FILLER_15_206
*472 FILLER_15_221
*473 FILLER_15_237
*474 FILLER_15_240
*475 FILLER_15_274
*476 FILLER_15_308
*477 FILLER_15_329
*478 FILLER_15_331
*479 FILLER_15_36
*480 FILLER_15_370
*481 FILLER_15_404
*482 FILLER_15_410
*483 FILLER_15_444
*484 FILLER_15_454
*485 FILLER_15_456
*486 FILLER_15_70
*487 FILLER_1_104
*488 FILLER_1_112
*489 FILLER_1_116
*490 FILLER_1_125
*491 FILLER_1_133
*492 FILLER_1_137
*493 FILLER_1_139
*494 FILLER_1_142
*495 FILLER_1_158
*496 FILLER_1_170
*497 FILLER_1_172
*498 FILLER_1_181
*499 FILLER_1_197
*500 FILLER_1_2
*501 FILLER_1_205
*502 FILLER_1_209
*503 FILLER_1_212
*504 FILLER_1_276
*505 FILLER_1_282
*506 FILLER_1_294
*507 FILLER_1_326
*508 FILLER_1_352
*509 FILLER_1_392
*510 FILLER_1_408
*511 FILLER_1_422
*512 FILLER_1_426
*513 FILLER_1_428
*514 FILLER_1_66
*515 FILLER_1_72
*516 FILLER_2_107
*517 FILLER_2_139
*518 FILLER_2_15
*519 FILLER_2_151
*520 FILLER_2_167
*521 FILLER_2_177
*522 FILLER_2_2
*523 FILLER_2_23
*524 FILLER_2_241
*525 FILLER_2_247
*526 FILLER_2_311
*527 FILLER_2_317
*528 FILLER_2_321
*529 FILLER_2_323
*530 FILLER_2_332
*531 FILLER_2_348
*532 FILLER_2_37
*533 FILLER_2_380
*534 FILLER_2_384
*535 FILLER_2_387
*536 FILLER_2_395
*537 FILLER_2_397
*538 FILLER_2_406
*539 FILLER_2_410
*540 FILLER_2_412
*541 FILLER_2_6
*542 FILLER_2_69
*543 FILLER_2_85
*544 FILLER_3_136
*545 FILLER_3_142
*546 FILLER_3_158
*547 FILLER_3_166
*548 FILLER_3_168
*549 FILLER_3_17
*550 FILLER_3_177
*551 FILLER_3_2
*552 FILLER_3_209
*553 FILLER_3_220
*554 FILLER_3_244
*555 FILLER_3_252
*556 FILLER_3_262
*557 FILLER_3_278
*558 FILLER_3_282
*559 FILLER_3_286
*560 FILLER_3_295
*561 FILLER_3_327
*562 FILLER_3_343
*563 FILLER_3_347
*564 FILLER_3_349
*565 FILLER_3_352
*566 FILLER_3_384
*567 FILLER_3_400
*568 FILLER_3_418
*569 FILLER_3_422
*570 FILLER_3_426
*571 FILLER_3_428
*572 FILLER_3_49
*573 FILLER_3_6
*574 FILLER_3_65
*575 FILLER_3_69
*576 FILLER_3_72
*577 FILLER_3_8
*578 FILLER_4_103
*579 FILLER_4_107
*580 FILLER_4_123
*581 FILLER_4_133
*582 FILLER_4_165
*583 FILLER_4_173
*584 FILLER_4_177
*585 FILLER_4_2
*586 FILLER_4_209
*587 FILLER_4_225
*588 FILLER_4_237
*589 FILLER_4_247
*590 FILLER_4_279
*591 FILLER_4_283
*592 FILLER_4_292
*593 FILLER_4_308
*594 FILLER_4_312
*595 FILLER_4_314
*596 FILLER_4_317
*597 FILLER_4_34
*598 FILLER_4_349
*599 FILLER_4_365
*600 FILLER_4_369
*601 FILLER_4_37
*602 FILLER_4_378
*603 FILLER_4_382
*604 FILLER_4_384
*605 FILLER_4_395
*606 FILLER_4_403
*607 FILLER_4_415
*608 FILLER_4_69
*609 FILLER_4_77
*610 FILLER_4_81
*611 FILLER_4_91
*612 FILLER_4_99
*613 FILLER_5_104
*614 FILLER_5_128
*615 FILLER_5_136
*616 FILLER_5_142
*617 FILLER_5_144
*618 FILLER_5_153
*619 FILLER_5_185
*620 FILLER_5_193
*621 FILLER_5_2
*622 FILLER_5_202
*623 FILLER_5_212
*624 FILLER_5_214
*625 FILLER_5_223
*626 FILLER_5_255
*627 FILLER_5_271
*628 FILLER_5_279
*629 FILLER_5_282
*630 FILLER_5_314
*631 FILLER_5_330
*632 FILLER_5_338
*633 FILLER_5_34
*634 FILLER_5_348
*635 FILLER_5_352
*636 FILLER_5_416
*637 FILLER_5_42
*638 FILLER_5_422
*639 FILLER_5_426
*640 FILLER_5_428
*641 FILLER_5_54
*642 FILLER_5_72
*643 FILLER_6_102
*644 FILLER_6_104
*645 FILLER_6_107
*646 FILLER_6_171
*647 FILLER_6_177
*648 FILLER_6_193
*649 FILLER_6_2
*650 FILLER_6_201
*651 FILLER_6_213
*652 FILLER_6_247
*653 FILLER_6_311
*654 FILLER_6_317
*655 FILLER_6_325
*656 FILLER_6_329
*657 FILLER_6_34
*658 FILLER_6_346
*659 FILLER_6_378
*660 FILLER_6_382
*661 FILLER_6_384
*662 FILLER_6_387
*663 FILLER_6_419
*664 FILLER_6_421
*665 FILLER_6_430
*666 FILLER_6_432
*667 FILLER_6_53
*668 FILLER_6_69
*669 FILLER_6_77
*670 FILLER_6_94
*671 FILLER_7_113
*672 FILLER_7_129
*673 FILLER_7_137
*674 FILLER_7_139
*675 FILLER_7_142
*676 FILLER_7_158
*677 FILLER_7_168
*678 FILLER_7_184
*679 FILLER_7_192
*680 FILLER_7_2
*681 FILLER_7_204
*682 FILLER_7_208
*683 FILLER_7_212
*684 FILLER_7_244
*685 FILLER_7_252
*686 FILLER_7_254
*687 FILLER_7_263
*688 FILLER_7_279
*689 FILLER_7_282
*690 FILLER_7_34
*691 FILLER_7_346
*692 FILLER_7_352
*693 FILLER_7_384
*694 FILLER_7_388
*695 FILLER_7_390
*696 FILLER_7_399
*697 FILLER_7_415
*698 FILLER_7_419
*699 FILLER_7_42
*700 FILLER_7_422
*701 FILLER_7_426
*702 FILLER_7_428
*703 FILLER_7_44
*704 FILLER_7_53
*705 FILLER_7_69
*706 FILLER_7_72
*707 FILLER_7_81
*708 FILLER_8_101
*709 FILLER_8_135
*710 FILLER_8_151
*711 FILLER_8_155
*712 FILLER_8_165
*713 FILLER_8_173
*714 FILLER_8_177
*715 FILLER_8_193
*716 FILLER_8_2
*717 FILLER_8_209
*718 FILLER_8_241
*719 FILLER_8_247
*720 FILLER_8_263
*721 FILLER_8_295
*722 FILLER_8_311
*723 FILLER_8_317
*724 FILLER_8_34
*725 FILLER_8_37
*726 FILLER_8_381
*727 FILLER_8_387
*728 FILLER_8_419
*729 FILLER_9_100
*730 FILLER_9_142
*731 FILLER_9_150
*732 FILLER_9_154
*733 FILLER_9_169
*734 FILLER_9_177
*735 FILLER_9_179
*736 FILLER_9_196
*737 FILLER_9_2
*738 FILLER_9_204
*739 FILLER_9_208
*740 FILLER_9_212
*741 FILLER_9_214
*742 FILLER_9_223
*743 FILLER_9_263
*744 FILLER_9_279
*745 FILLER_9_290
*746 FILLER_9_322
*747 FILLER_9_338
*748 FILLER_9_346
*749 FILLER_9_352
*750 FILLER_9_416
*751 FILLER_9_422
*752 FILLER_9_426
*753 FILLER_9_66
*754 FILLER_9_72
*755 FILLER_9_84
*756 PHY_EDGE_ROW_0_Left_16
*757 PHY_EDGE_ROW_0_Right_0
*758 PHY_EDGE_ROW_10_Left_26
*759 PHY_EDGE_ROW_10_Right_10
*760 PHY_EDGE_ROW_11_Left_27
*761 PHY_EDGE_ROW_11_Right_11
*762 PHY_EDGE_ROW_12_Left_28
*763 PHY_EDGE_ROW_12_Right_12
*764 PHY_EDGE_ROW_13_Left_29
*765 PHY_EDGE_ROW_13_Right_13
*766 PHY_EDGE_ROW_14_Left_30
*767 PHY_EDGE_ROW_14_Right_14
*768 PHY_EDGE_ROW_15_Left_31
*769 PHY_EDGE_ROW_15_Right_15
*770 PHY_EDGE_ROW_1_Left_17
*771 PHY_EDGE_ROW_1_Right_1
*772 PHY_EDGE_ROW_2_Left_18
*773 PHY_EDGE_ROW_2_Right_2
*774 PHY_EDGE_ROW_3_Left_19
*775 PHY_EDGE_ROW_3_Right_3
*776 PHY_EDGE_ROW_4_Left_20
*777 PHY_EDGE_ROW_4_Right_4
*778 PHY_EDGE_ROW_5_Left_21
*779 PHY_EDGE_ROW_5_Right_5
*780 PHY_EDGE_ROW_6_Left_22
*781 PHY_EDGE_ROW_6_Right_6
*782 PHY_EDGE_ROW_7_Left_23
*783 PHY_EDGE_ROW_7_Right_7
*784 PHY_EDGE_ROW_8_Left_24
*785 PHY_EDGE_ROW_8_Right_8
*786 PHY_EDGE_ROW_9_Left_25
*787 PHY_EDGE_ROW_9_Right_9
*788 TAP_TAPCELL_ROW_0_32
*789 TAP_TAPCELL_ROW_0_33
*790 TAP_TAPCELL_ROW_0_34
*791 TAP_TAPCELL_ROW_0_35
*792 TAP_TAPCELL_ROW_0_36
*793 TAP_TAPCELL_ROW_0_37
*794 TAP_TAPCELL_ROW_0_38
*795 TAP_TAPCELL_ROW_0_39
*796 TAP_TAPCELL_ROW_0_40
*797 TAP_TAPCELL_ROW_0_41
*798 TAP_TAPCELL_ROW_0_42
*799 TAP_TAPCELL_ROW_0_43
*800 TAP_TAPCELL_ROW_0_44
*801 TAP_TAPCELL_ROW_10_103
*802 TAP_TAPCELL_ROW_10_104
*803 TAP_TAPCELL_ROW_10_105
*804 TAP_TAPCELL_ROW_10_106
*805 TAP_TAPCELL_ROW_10_107
*806 TAP_TAPCELL_ROW_10_108
*807 TAP_TAPCELL_ROW_10_109
*808 TAP_TAPCELL_ROW_11_110
*809 TAP_TAPCELL_ROW_11_111
*810 TAP_TAPCELL_ROW_11_112
*811 TAP_TAPCELL_ROW_11_113
*812 TAP_TAPCELL_ROW_11_114
*813 TAP_TAPCELL_ROW_11_115
*814 TAP_TAPCELL_ROW_12_116
*815 TAP_TAPCELL_ROW_12_117
*816 TAP_TAPCELL_ROW_12_118
*817 TAP_TAPCELL_ROW_12_119
*818 TAP_TAPCELL_ROW_12_120
*819 TAP_TAPCELL_ROW_12_121
*820 TAP_TAPCELL_ROW_12_122
*821 TAP_TAPCELL_ROW_13_123
*822 TAP_TAPCELL_ROW_13_124
*823 TAP_TAPCELL_ROW_13_125
*824 TAP_TAPCELL_ROW_13_126
*825 TAP_TAPCELL_ROW_13_127
*826 TAP_TAPCELL_ROW_13_128
*827 TAP_TAPCELL_ROW_14_129
*828 TAP_TAPCELL_ROW_14_130
*829 TAP_TAPCELL_ROW_14_131
*830 TAP_TAPCELL_ROW_14_132
*831 TAP_TAPCELL_ROW_14_133
*832 TAP_TAPCELL_ROW_14_134
*833 TAP_TAPCELL_ROW_14_135
*834 TAP_TAPCELL_ROW_15_136
*835 TAP_TAPCELL_ROW_15_137
*836 TAP_TAPCELL_ROW_15_138
*837 TAP_TAPCELL_ROW_15_139
*838 TAP_TAPCELL_ROW_15_140
*839 TAP_TAPCELL_ROW_15_141
*840 TAP_TAPCELL_ROW_15_142
*841 TAP_TAPCELL_ROW_15_143
*842 TAP_TAPCELL_ROW_15_144
*843 TAP_TAPCELL_ROW_15_145
*844 TAP_TAPCELL_ROW_15_146
*845 TAP_TAPCELL_ROW_15_147
*846 TAP_TAPCELL_ROW_15_148
*847 TAP_TAPCELL_ROW_1_45
*848 TAP_TAPCELL_ROW_1_46
*849 TAP_TAPCELL_ROW_1_47
*850 TAP_TAPCELL_ROW_1_48
*851 TAP_TAPCELL_ROW_1_49
*852 TAP_TAPCELL_ROW_1_50
*853 TAP_TAPCELL_ROW_2_51
*854 TAP_TAPCELL_ROW_2_52
*855 TAP_TAPCELL_ROW_2_53
*856 TAP_TAPCELL_ROW_2_54
*857 TAP_TAPCELL_ROW_2_55
*858 TAP_TAPCELL_ROW_2_56
*859 TAP_TAPCELL_ROW_2_57
*860 TAP_TAPCELL_ROW_3_58
*861 TAP_TAPCELL_ROW_3_59
*862 TAP_TAPCELL_ROW_3_60
*863 TAP_TAPCELL_ROW_3_61
*864 TAP_TAPCELL_ROW_3_62
*865 TAP_TAPCELL_ROW_3_63
*866 TAP_TAPCELL_ROW_4_64
*867 TAP_TAPCELL_ROW_4_65
*868 TAP_TAPCELL_ROW_4_66
*869 TAP_TAPCELL_ROW_4_67
*870 TAP_TAPCELL_ROW_4_68
*871 TAP_TAPCELL_ROW_4_69
*872 TAP_TAPCELL_ROW_4_70
*873 TAP_TAPCELL_ROW_5_71
*874 TAP_TAPCELL_ROW_5_72
*875 TAP_TAPCELL_ROW_5_73
*876 TAP_TAPCELL_ROW_5_74
*877 TAP_TAPCELL_ROW_5_75
*878 TAP_TAPCELL_ROW_5_76
*879 TAP_TAPCELL_ROW_6_77
*880 TAP_TAPCELL_ROW_6_78
*881 TAP_TAPCELL_ROW_6_79
*882 TAP_TAPCELL_ROW_6_80
*883 TAP_TAPCELL_ROW_6_81
*884 TAP_TAPCELL_ROW_6_82
*885 TAP_TAPCELL_ROW_6_83
*886 TAP_TAPCELL_ROW_7_84
*887 TAP_TAPCELL_ROW_7_85
*888 TAP_TAPCELL_ROW_7_86
*889 TAP_TAPCELL_ROW_7_87
*890 TAP_TAPCELL_ROW_7_88
*891 TAP_TAPCELL_ROW_7_89
*892 TAP_TAPCELL_ROW_8_90
*893 TAP_TAPCELL_ROW_8_91
*894 TAP_TAPCELL_ROW_8_92
*895 TAP_TAPCELL_ROW_8_93
*896 TAP_TAPCELL_ROW_8_94
*897 TAP_TAPCELL_ROW_8_95
*898 TAP_TAPCELL_ROW_8_96
*899 TAP_TAPCELL_ROW_9_100
*900 TAP_TAPCELL_ROW_9_101
*901 TAP_TAPCELL_ROW_9_102
*902 TAP_TAPCELL_ROW_9_97
*903 TAP_TAPCELL_ROW_9_98
*904 TAP_TAPCELL_ROW_9_99
*905 _000_
*906 _001_
*907 _002_
*908 _003_
*909 _004_
*910 _005_
*911 _006_
*912 _007_
*913 _008_
*914 _009_
*915 _010_
*916 _011_
*917 _012_
*918 _013_
*919 _014_
*920 _015_
*921 _016_
*922 _017_
*923 _018_
*924 _019_
*925 _020_
*926 _021_
*927 _022_
*928 _023_
*929 _024_
*930 _025_
*931 _026_
*932 _027_
*933 _028_
*934 _029_
*935 _030_
*936 _031_
*937 _032_
*938 _033_
*939 _034_
*940 _035_
*941 _036_
*942 _037_
*943 _038_
*944 _039_
*945 _040_
*946 _041_
*947 _042_
*948 _043_
*949 _044_
*950 _045_
*951 _046_
*952 _047_
*953 _048_
*954 _049_
*955 _050_
*956 _051_
*957 _052_
*958 _053_
*959 _054_
*960 _055_
*961 _056_
*962 _057_
*963 _058_
*964 _059_
*965 _060_
*966 _061_
*967 _062_
*968 _063_
*969 _064_
*970 _065_
*971 _066_
*972 _067_
*973 _068_
*974 _069_
*975 _070_
*976 _071_
*977 _072_
*978 _073_
*979 _074_
*980 _075_
*981 _076_
*982 _077_
*983 _078_
*984 _079_
*985 _080_
*986 _081_
*987 _082_
*988 _083_
*989 _084_
*990 _085_
*991 _086_
*992 _087_
*993 _088_
*994 _089_
*995 _090_
*996 _091_
*997 _092_
*998 _093_
*999 _094_
*1000 _095_
*1001 _096_
*1002 _097_
*1003 _098_
*1004 _099_
*1005 _100_
*1006 _101_
*1007 _102_
*1008 _103_
*1009 _104_
*1010 output1
*1011 output10
*1012 output100
*1013 output101
*1014 output102
*1015 output103
*1016 output104
*1017 output105
*1018 output11
*1019 output12
*1020 output13
*1021 output14
*1022 output15
*1023 output16
*1024 output17
*1025 output18
*1026 output19
*1027 output2
*1028 output20
*1029 output21
*1030 output22
*1031 output23
*1032 output24
*1033 output25
*1034 output26
*1035 output27
*1036 output28
*1037 output29
*1038 output3
*1039 output30
*1040 output31
*1041 output32
*1042 output33
*1043 output34
*1044 output35
*1045 output36
*1046 output37
*1047 output38
*1048 output39
*1049 output4
*1050 output40
*1051 output41
*1052 output42
*1053 output43
*1054 output44
*1055 output45
*1056 output46
*1057 output47
*1058 output48
*1059 output49
*1060 output5
*1061 output50
*1062 output51
*1063 output52
*1064 output53
*1065 output54
*1066 output55
*1067 output56
*1068 output57
*1069 output58
*1070 output59
*1071 output6
*1072 output60
*1073 output61
*1074 output62
*1075 output63
*1076 output64
*1077 output65
*1078 output66
*1079 output67
*1080 output68
*1081 output69
*1082 output7
*1083 output70
*1084 output71
*1085 output72
*1086 output73
*1087 output74
*1088 output75
*1089 output76
*1090 output77
*1091 output78
*1092 output79
*1093 output8
*1094 output80
*1095 output81
*1096 output82
*1097 output83
*1098 output84
*1099 output85
*1100 output86
*1101 output87
*1102 output88
*1103 output89
*1104 output9
*1105 output90
*1106 output91
*1107 output92
*1108 output93
*1109 output94
*1110 output95
*1111 output96
*1112 output97
*1113 output98
*1114 output99

*PORTS
FrameData[0] I
FrameData[10] I
FrameData[11] I
FrameData[12] I
FrameData[13] I
FrameData[14] I
FrameData[15] I
FrameData[16] I
FrameData[17] I
FrameData[18] I
FrameData[19] I
FrameData[1] I
FrameData[20] I
FrameData[21] I
FrameData[22] I
FrameData[23] I
FrameData[24] I
FrameData[25] I
FrameData[26] I
FrameData[27] I
FrameData[28] I
FrameData[29] I
FrameData[2] I
FrameData[30] I
FrameData[31] I
FrameData[3] I
FrameData[4] I
FrameData[5] I
FrameData[6] I
FrameData[7] I
FrameData[8] I
FrameData[9] I
FrameData_O[0] O
FrameData_O[10] O
FrameData_O[11] O
FrameData_O[12] O
FrameData_O[13] O
FrameData_O[14] O
FrameData_O[15] O
FrameData_O[16] O
FrameData_O[17] O
FrameData_O[18] O
FrameData_O[19] O
FrameData_O[1] O
FrameData_O[20] O
FrameData_O[21] O
FrameData_O[22] O
FrameData_O[23] O
FrameData_O[24] O
FrameData_O[25] O
FrameData_O[26] O
FrameData_O[27] O
FrameData_O[28] O
FrameData_O[29] O
FrameData_O[2] O
FrameData_O[30] O
FrameData_O[31] O
FrameData_O[3] O
FrameData_O[4] O
FrameData_O[5] O
FrameData_O[6] O
FrameData_O[7] O
FrameData_O[8] O
FrameData_O[9] O
FrameStrobe[0] I
FrameStrobe[10] I
FrameStrobe[11] I
FrameStrobe[12] I
FrameStrobe[13] I
FrameStrobe[14] I
FrameStrobe[15] I
FrameStrobe[16] I
FrameStrobe[17] I
FrameStrobe[18] I
FrameStrobe[19] I
FrameStrobe[1] I
FrameStrobe[2] I
FrameStrobe[3] I
FrameStrobe[4] I
FrameStrobe[5] I
FrameStrobe[6] I
FrameStrobe[7] I
FrameStrobe[8] I
FrameStrobe[9] I
FrameStrobe_O[0] O
FrameStrobe_O[10] O
FrameStrobe_O[11] O
FrameStrobe_O[12] O
FrameStrobe_O[13] O
FrameStrobe_O[14] O
FrameStrobe_O[15] O
FrameStrobe_O[16] O
FrameStrobe_O[17] O
FrameStrobe_O[18] O
FrameStrobe_O[19] O
FrameStrobe_O[1] O
FrameStrobe_O[2] O
FrameStrobe_O[3] O
FrameStrobe_O[4] O
FrameStrobe_O[5] O
FrameStrobe_O[6] O
FrameStrobe_O[7] O
FrameStrobe_O[8] O
FrameStrobe_O[9] O
N1BEG[0] O
N1BEG[1] O
N1BEG[2] O
N1BEG[3] O
N2BEG[0] O
N2BEG[1] O
N2BEG[2] O
N2BEG[3] O
N2BEG[4] O
N2BEG[5] O
N2BEG[6] O
N2BEG[7] O
N2BEGb[0] O
N2BEGb[1] O
N2BEGb[2] O
N2BEGb[3] O
N2BEGb[4] O
N2BEGb[5] O
N2BEGb[6] O
N2BEGb[7] O
N4BEG[0] O
N4BEG[10] O
N4BEG[11] O
N4BEG[12] O
N4BEG[13] O
N4BEG[14] O
N4BEG[15] O
N4BEG[1] O
N4BEG[2] O
N4BEG[3] O
N4BEG[4] O
N4BEG[5] O
N4BEG[6] O
N4BEG[7] O
N4BEG[8] O
N4BEG[9] O
NN4BEG[0] O
NN4BEG[10] O
NN4BEG[11] O
NN4BEG[12] O
NN4BEG[13] O
NN4BEG[14] O
NN4BEG[15] O
NN4BEG[1] O
NN4BEG[2] O
NN4BEG[3] O
NN4BEG[4] O
NN4BEG[5] O
NN4BEG[6] O
NN4BEG[7] O
NN4BEG[8] O
NN4BEG[9] O
S1END[0] I
S1END[1] I
S1END[2] I
S1END[3] I
S2END[0] I
S2END[1] I
S2END[2] I
S2END[3] I
S2END[4] I
S2END[5] I
S2END[6] I
S2END[7] I
S2MID[0] I
S2MID[1] I
S2MID[2] I
S2MID[3] I
S2MID[4] I
S2MID[5] I
S2MID[6] I
S2MID[7] I
S4END[0] I
S4END[10] I
S4END[11] I
S4END[12] I
S4END[13] I
S4END[14] I
S4END[15] I
S4END[1] I
S4END[2] I
S4END[3] I
S4END[4] I
S4END[5] I
S4END[6] I
S4END[7] I
S4END[8] I
S4END[9] I
SS4END[0] I
SS4END[10] I
SS4END[11] I
SS4END[12] I
SS4END[13] I
SS4END[14] I
SS4END[15] I
SS4END[1] I
SS4END[2] I
SS4END[3] I
SS4END[4] I
SS4END[5] I
SS4END[6] I
SS4END[7] I
SS4END[8] I
SS4END[9] I
UserCLK I
UserCLKo O

*D_NET *1 0.0590161
*CONN
*P FrameData[0] I
*I *905:I I *D gf180mcu_fd_sc_mcu7t5v0__buf_2
*CAP
1 FrameData[0] 0.00253747
2 *905:I 0.000443529
3 *1:59 0.00198324
4 *1:37 0.00408182
5 *1:13 0.00507958
6 *905:I *906:I 0.00272479
7 *905:I *1050:I 0.00172402
8 *905:I *203:25 0.0016487
9 *905:I *226:52 0.000458916
10 *905:I *254:22 7.94811e-05
11 *905:I *275:54 0.00105401
12 *905:I *299:38 0.000136372
13 *1:13 *907:I 0.00273979
14 *1:13 *1007:I 0.000261988
15 *1:13 *1066:I 0.000576355
16 *1:13 *6:23 0.000427138
17 *1:13 *12:19 0.000223402
18 *1:13 *14:21 0.000429357
19 *1:13 *22:21 0.000151437
20 *1:13 *27:25 8.67636e-05
21 *1:13 *29:27 0.000526979
22 *1:13 *30:25 0.00338562
23 *1:13 *207:45 0.00326174
24 *1:13 *218:24 3.34303e-05
25 *1:13 *304:22 0.00248712
26 *1:37 *1003:I 0.00026237
27 *1:37 *19:51 9.84908e-05
28 *1:37 *24:33 8.43025e-06
29 *1:37 *27:55 0.000989513
30 *1:37 *65:35 0.000163062
31 *1:37 *65:61 0.000828534
32 *1:37 *66:39 0.00107582
33 *1:37 *70:65 0
34 *1:37 *79:37 0.000434544
35 *1:37 *82:31 0.000435532
36 *1:37 *84:29 4.07607e-06
37 *1:37 *159:47 0.000393144
38 *1:37 *159:73 0.00270305
39 *1:37 *195:39 1.29104e-05
40 *1:37 *208:83 0.00201403
41 *1:37 *226:20 8.88788e-05
42 *1:37 *226:36 0.000137004
43 *1:37 *227:30 0.00130147
44 *1:37 *227:50 5.42797e-05
45 *1:37 *234:36 0.000530839
46 *1:37 *265:30 0.000805426
47 *1:37 *266:42 0.000591244
48 *1:59 *922:I 3.57695e-05
49 *1:59 *962:I 0.000459734
50 *1:59 *2:83 0.00138597
51 *1:59 *7:105 1.0415e-05
52 *1:59 *10:45 0.00182028
53 *1:59 *14:41 0.00123519
54 *1:59 *65:61 4.18948e-05
55 *1:59 *68:21 0.000165275
56 *1:59 *84:29 0.000558116
57 *1:59 *196:15 9.40674e-05
58 *1:59 *201:45 0.0014463
59 *1:59 *226:36 0.00121377
60 *1:59 *248:24 4.18883e-05
61 *1:59 *250:40 0.00014906
62 *1:59 *254:22 0.000154129
63 *1:59 *313:34 0.000728529
*RES
1 FrameData[0] *1:13 45.945 
2 *1:13 *1:37 45.72 
3 *1:37 *1:59 46.53 
4 *1:59 *905:I 23.13 
*END

*D_NET *2 0.0583155
*CONN
*P FrameData[10] I
*I *915:I I *D gf180mcu_fd_sc_mcu7t5v0__buf_2
*CAP
1 FrameData[10] 0.0029221
2 *915:I 0.00155258
3 *2:83 0.00296507
4 *2:57 0.00289535
5 *2:29 0.00440495
6 *915:I *1043:I 9.61282e-05
7 *915:I *1048:I 0.00387123
8 *915:I *1053:I 0.000501404
9 *915:I *1061:I 0.00249658
10 *915:I *72:15 4.1834e-05
11 *915:I *178:25 0.000174275
12 *915:I *182:31 9.49806e-05
13 *915:I *187:31 0.000626286
14 *915:I *208:31 0.000116663
15 *915:I *221:20 0.000159441
16 *915:I *224:16 0.00021587
17 *915:I *241:22 0.000256921
18 *915:I *262:24 0.00118784
19 *915:I *299:38 0.000706201
20 *915:I *303:22 2.00589e-05
21 *2:29 *907:I 0.00148827
22 *2:29 *952:I 0.000399144
23 *2:29 *983:I 0.000119359
24 *2:29 *1003:I 0.000326775
25 *2:29 *1065:I 0
26 *2:29 *1078:I 0.000149738
27 *2:29 *1097:I 0.000228357
28 *2:29 *1114:I 0.000197022
29 *2:29 *3:23 0.000137309
30 *2:29 *4:19 0.000182866
31 *2:29 *6:23 0.000839377
32 *2:29 *7:31 5.44009e-05
33 *2:29 *13:33 0.00209349
34 *2:29 *27:25 1.24166e-05
35 *2:29 *27:55 6.16463e-05
36 *2:29 *29:27 0.000895557
37 *2:29 *30:25 0
38 *2:29 *32:21 0.00018457
39 *2:29 *76:27 0.000432792
40 *2:29 *77:23 1.38506e-05
41 *2:29 *189:55 0.000560427
42 *2:29 *218:24 0.000121217
43 *2:29 *226:20 0
44 *2:29 *234:22 0.00030607
45 *2:29 *251:18 0.000285981
46 *2:29 *266:20 5.89289e-05
47 *2:29 *311:24 3.01487e-05
48 *2:57 *943:I 0.000213554
49 *2:57 *983:I 0.00137898
50 *2:57 *1012:I 0.000205509
51 *2:57 *1066:I 0.000204855
52 *2:57 *1083:I 6.76449e-05
53 *2:57 *1084:I 0.000229148
54 *2:57 *1097:I 3.90545e-05
55 *2:57 *1114:I 0.000207732
56 *2:57 *7:75 3.06566e-05
57 *2:57 *27:55 2.36954e-05
58 *2:57 *76:27 0.000302714
59 *2:57 *201:45 0.00208264
60 *2:57 *207:45 0.000190307
61 *2:57 *225:46 0.00214404
62 *2:57 *234:22 4.08303e-05
63 *2:57 *253:16 0.000914499
64 *2:57 *278:54 8.77963e-05
65 *2:57 *281:34 6.0612e-06
66 *2:57 *293:28 0.000231549
67 *2:57 *309:28 0.00086481
68 *2:83 *922:I 0.00199335
69 *2:83 *7:105 0.00141221
70 *2:83 *9:43 3.09669e-05
71 *2:83 *10:45 0.000584525
72 *2:83 *68:21 0.000136905
73 *2:83 *71:47 6.09981e-05
74 *2:83 *77:45 0.00347589
75 *2:83 *171:35 0.00222821
76 *2:83 *195:21 0.000882752
77 *2:83 *196:15 3.75262e-05
78 *2:83 *201:31 1.26111e-05
79 *2:83 *201:45 9.5053e-05
80 *2:83 *204:21 9.15834e-06
81 *2:83 *234:22 0.00090866
82 *2:83 *266:56 0.000199882
83 *2:83 *288:24 0.000897431
84 *2:83 *303:22 1.18323e-05
85 *1:59 *2:83 0.00138597
*RES
1 FrameData[10] *2:29 49.635 
2 *2:29 *2:57 45.7907 
3 *2:57 *2:83 47.88 
4 *2:83 *915:I 45.36 
*END

*D_NET *3 0.036423
*CONN
*P FrameData[11] I
*I *916:I I *D gf180mcu_fd_sc_mcu7t5v0__buf_2
*CAP
1 FrameData[11] 0.00178192
2 *916:I 0
3 *3:53 0.00149265
4 *3:23 0.00327457
5 *3:23 *907:I 8.8854e-05
6 *3:23 *934:I 0.000842385
7 *3:23 *983:I 0.000335895
8 *3:23 *1004:I 0.00276864
9 *3:23 *1067:I 0.0002764
10 *3:23 *4:19 0.000380264
11 *3:23 *7:31 0.00493882
12 *3:23 *10:21 4.42206e-05
13 *3:23 *19:21 0.00116564
14 *3:23 *29:27 0.000188644
15 *3:23 *70:65 0.000518915
16 *3:23 *189:55 0.000783763
17 *3:23 *190:57 0.000158798
18 *3:23 *209:21 1.39987e-05
19 *3:23 *234:22 2.35868e-05
20 *3:23 *237:24 0.0010058
21 *3:23 *311:24 0.000935099
22 *3:53 *933:I 0.000930897
23 *3:53 *936:I 0.00157923
24 *3:53 *947:I 2.60586e-05
25 *3:53 *957:I 8.4225e-05
26 *3:53 *961:I 9.89047e-05
27 *3:53 *968:I 0.000851978
28 *3:53 *995:I 0.00142102
29 *3:53 *1043:I 0.00156317
30 *3:53 *1103:I 3.27059e-05
31 *3:53 *1112:I 0.000255946
32 *3:53 *7:105 5.29127e-06
33 *3:53 *8:53 0.000881455
34 *3:53 *10:21 0.00158402
35 *3:53 *27:55 0.00157141
36 *3:53 *68:57 5.56748e-05
37 *3:53 *170:29 0.00115194
38 *3:53 *177:31 0.000201329
39 *3:53 *190:33 0.00104623
40 *3:53 *197:31 0.000163077
41 *3:53 *200:55 4.12227e-05
42 *3:53 *262:24 0.00142768
43 *3:53 *289:30 6.38612e-06
44 *3:53 *303:58 0.000286975
45 *2:29 *3:23 0.000137309
*RES
1 FrameData[11] *3:23 48.735 
2 *3:23 *3:53 48.6 
3 *3:53 *916:I 4.5 
*END

*D_NET *4 0.0633923
*CONN
*P FrameData[12] I
*I *917:I I *D gf180mcu_fd_sc_mcu7t5v0__buf_2
*CAP
1 FrameData[12] 0.00145679
2 *917:I 0.000867938
3 *4:115 0.00229954
4 *4:95 0.00286796
5 *4:49 0.00406429
6 *4:19 0.00408472
7 *917:I *940:I 0.000161479
8 *917:I *1022:I 0.00037575
9 *917:I *1024:I 0.00166651
10 *917:I *1026:I 0
11 *917:I *299:22 0.000298381
12 *4:19 *907:I 0.000536327
13 *4:19 *999:I 0.00125616
14 *4:19 *5:15 0.000316386
15 *4:19 *5:17 0.000294388
16 *4:19 *7:31 0
17 *4:19 *13:33 0
18 *4:19 *29:27 0.000413118
19 *4:19 *65:19 0
20 *4:19 *216:14 0.00235549
21 *4:19 *225:24 0.00109345
22 *4:19 *250:26 0.00452823
23 *4:19 *251:18 1.77167e-05
24 *4:19 *266:42 0.000345288
25 *4:19 *292:26 0.00173393
26 *4:49 *989:I 0.00290613
27 *4:49 *1069:I 0.00235511
28 *4:49 *1085:I 4.03471e-05
29 *4:49 *7:75 0.000325211
30 *4:49 *8:53 0
31 *4:49 *13:59 0.0014687
32 *4:49 *19:51 5.13763e-05
33 *4:49 *27:55 0.000153443
34 *4:49 *32:21 0.000538918
35 *4:49 *65:35 0.000230008
36 *4:49 *208:65 1.18323e-05
37 *4:49 *246:16 0.000397892
38 *4:49 *249:52 0.00012371
39 *4:49 *264:76 0.000285304
40 *4:49 *270:24 3.11219e-05
41 *4:49 *278:54 0.000343182
42 *4:49 *283:60 4.96556e-06
43 *4:49 *287:24 0.0011045
44 *4:95 *913:I 0.00010844
45 *4:95 *8:53 0.000341502
46 *4:95 *18:37 0.000233545
47 *4:95 *68:57 1.63935e-05