*SPEF "ieee 1481-1999"
*DESIGN "eFPGA"
*DATE "11:21:29 Friday November 28, 2025"
*VENDOR "The OpenROAD Project"
*PROGRAM "OpenROAD"
*VERSION "341650e72dad0dc8571822ff8c5d9c5e365327f7"
*DESIGN_FLOW "NAME_SCOPE LOCAL" "PIN_CAP NONE"
*DIVIDER /
*DELIMITER :
*BUS_DELIMITER []
*T_UNIT 1 NS
*C_UNIT 1 PF
*R_UNIT 1 OHM
*L_UNIT 1 HENRY

*NAME_MAP
*1 FrameData[0]
*2 FrameData[100]
*3 FrameData[101]
*4 FrameData[102]
*5 FrameData[103]
*6 FrameData[104]
*7 FrameData[105]
*8 FrameData[106]
*9 FrameData[107]
*10 FrameData[108]
*11 FrameData[109]
*12 FrameData[10]
*13 FrameData[110]
*14 FrameData[111]
*15 FrameData[112]
*16 FrameData[113]
*17 FrameData[114]
*18 FrameData[115]
*19 FrameData[116]
*20 FrameData[117]
*21 FrameData[118]
*22 FrameData[119]
*23 FrameData[11]
*24 FrameData[120]
*25 FrameData[121]
*26 FrameData[122]
*27 FrameData[123]
*28 FrameData[124]
*29 FrameData[125]
*30 FrameData[126]
*31 FrameData[127]
*32 FrameData[128]
*33 FrameData[129]
*34 FrameData[12]
*35 FrameData[130]
*36 FrameData[131]
*37 FrameData[132]
*38 FrameData[133]
*39 FrameData[134]
*40 FrameData[135]
*41 FrameData[136]
*42 FrameData[137]
*43 FrameData[138]
*44 FrameData[139]
*45 FrameData[13]
*46 FrameData[140]
*47 FrameData[141]
*48 FrameData[142]
*49 FrameData[143]
*50 FrameData[144]
*51 FrameData[145]
*52 FrameData[146]
*53 FrameData[147]
*54 FrameData[148]
*55 FrameData[149]
*56 FrameData[14]
*57 FrameData[150]
*58 FrameData[151]
*59 FrameData[152]
*60 FrameData[153]
*61 FrameData[154]
*62 FrameData[155]
*63 FrameData[156]
*64 FrameData[157]
*65 FrameData[158]
*66 FrameData[159]
*67 FrameData[15]
*68 FrameData[160]
*69 FrameData[161]
*70 FrameData[162]
*71 FrameData[163]
*72 FrameData[164]
*73 FrameData[165]
*74 FrameData[166]
*75 FrameData[167]
*76 FrameData[168]
*77 FrameData[169]
*78 FrameData[16]
*79 FrameData[170]
*80 FrameData[171]
*81 FrameData[172]
*82 FrameData[173]
*83 FrameData[174]
*84 FrameData[175]
*85 FrameData[176]
*86 FrameData[177]
*87 FrameData[178]
*88 FrameData[179]
*89 FrameData[17]
*90 FrameData[180]
*91 FrameData[181]
*92 FrameData[182]
*93 FrameData[183]
*94 FrameData[184]
*95 FrameData[185]
*96 FrameData[186]
*97 FrameData[187]
*98 FrameData[188]
*99 FrameData[189]
*100 FrameData[18]
*101 FrameData[190]
*102 FrameData[191]
*103 FrameData[192]
*104 FrameData[193]
*105 FrameData[194]
*106 FrameData[195]
*107 FrameData[196]
*108 FrameData[197]
*109 FrameData[198]
*110 FrameData[199]
*111 FrameData[19]
*112 FrameData[1]
*113 FrameData[200]
*114 FrameData[201]
*115 FrameData[202]
*116 FrameData[203]
*117 FrameData[204]
*118 FrameData[205]
*119 FrameData[206]
*120 FrameData[207]
*121 FrameData[208]
*122 FrameData[209]
*123 FrameData[20]
*124 FrameData[210]
*125 FrameData[211]
*126 FrameData[212]
*127 FrameData[213]
*128 FrameData[214]
*129 FrameData[215]
*130 FrameData[216]
*131 FrameData[217]
*132 FrameData[218]
*133 FrameData[219]
*134 FrameData[21]
*135 FrameData[220]
*136 FrameData[221]
*137 FrameData[222]
*138 FrameData[223]
*139 FrameData[224]
*140 FrameData[225]
*141 FrameData[226]
*142 FrameData[227]
*143 FrameData[228]
*144 FrameData[229]
*145 FrameData[22]
*146 FrameData[230]
*147 FrameData[231]
*148 FrameData[232]
*149 FrameData[233]
*150 FrameData[234]
*151 FrameData[235]
*152 FrameData[236]
*153 FrameData[237]
*154 FrameData[238]
*155 FrameData[239]
*156 FrameData[23]
*157 FrameData[240]
*158 FrameData[241]
*159 FrameData[242]
*160 FrameData[243]
*161 FrameData[244]
*162 FrameData[245]
*163 FrameData[246]
*164 FrameData[247]
*165 FrameData[248]
*166 FrameData[249]
*167 FrameData[24]
*168 FrameData[250]
*169 FrameData[251]
*170 FrameData[252]
*171 FrameData[253]
*172 FrameData[254]
*173 FrameData[255]
*174 FrameData[256]
*175 FrameData[257]
*176 FrameData[258]
*177 FrameData[259]
*178 FrameData[25]
*179 FrameData[260]
*180 FrameData[261]
*181 FrameData[262]
*182 FrameData[263]
*183 FrameData[264]
*184 FrameData[265]
*185 FrameData[266]
*186 FrameData[267]
*187 FrameData[268]
*188 FrameData[269]
*189 FrameData[26]
*190 FrameData[270]
*191 FrameData[271]
*192 FrameData[272]
*193 FrameData[273]
*194 FrameData[274]
*195 FrameData[275]
*196 FrameData[276]
*197 FrameData[277]
*198 FrameData[278]
*199 FrameData[279]
*200 FrameData[27]
*201 FrameData[280]
*202 FrameData[281]
*203 FrameData[282]
*204 FrameData[283]
*205 FrameData[284]
*206 FrameData[285]
*207 FrameData[286]
*208 FrameData[287]
*209 FrameData[288]
*210 FrameData[289]
*211 FrameData[28]
*212 FrameData[290]
*213 FrameData[291]
*214 FrameData[292]
*215 FrameData[293]
*216 FrameData[294]
*217 FrameData[295]
*218 FrameData[296]
*219 FrameData[297]
*220 FrameData[298]
*221 FrameData[299]
*222 FrameData[29]
*223 FrameData[2]
*224 FrameData[300]
*225 FrameData[301]
*226 FrameData[302]
*227 FrameData[303]
*228 FrameData[304]
*229 FrameData[305]
*230 FrameData[306]
*231 FrameData[307]
*232 FrameData[308]
*233 FrameData[309]
*234 FrameData[30]
*235 FrameData[310]
*236 FrameData[311]
*237 FrameData[312]
*238 FrameData[313]
*239 FrameData[314]
*240 FrameData[315]
*241 FrameData[316]
*242 FrameData[317]
*243 FrameData[318]
*244 FrameData[319]
*245 FrameData[31]
*246 FrameData[320]
*247 FrameData[321]
*248 FrameData[322]
*249 FrameData[323]
*250 FrameData[324]
*251 FrameData[325]
*252 FrameData[326]
*253 FrameData[327]
*254 FrameData[328]
*255 FrameData[329]
*256 FrameData[32]
*257 FrameData[330]
*258 FrameData[331]
*259 FrameData[332]
*260 FrameData[333]
*261 FrameData[334]
*262 FrameData[335]
*263 FrameData[336]
*264 FrameData[337]
*265 FrameData[338]
*266 FrameData[339]
*267 FrameData[33]
*268 FrameData[340]
*269 FrameData[341]
*270 FrameData[342]
*271 FrameData[343]
*272 FrameData[344]
*273 FrameData[345]
*274 FrameData[346]
*275 FrameData[347]
*276 FrameData[348]
*277 FrameData[349]
*278 FrameData[34]
*279 FrameData[350]
*280 FrameData[351]
*281 FrameData[352]
*282 FrameData[353]
*283 FrameData[354]
*284 FrameData[355]
*285 FrameData[356]
*286 FrameData[357]
*287 FrameData[358]
*288 FrameData[359]
*289 FrameData[35]
*290 FrameData[360]
*291 FrameData[361]
*292 FrameData[362]
*293 FrameData[363]
*294 FrameData[364]
*295 FrameData[365]
*296 FrameData[366]
*297 FrameData[367]
*298 FrameData[368]
*299 FrameData[369]
*300 FrameData[36]
*301 FrameData[370]
*302 FrameData[371]
*303 FrameData[372]
*304 FrameData[373]
*305 FrameData[374]
*306 FrameData[375]
*307 FrameData[376]
*308 FrameData[377]
*309 FrameData[378]
*310 FrameData[379]
*311 FrameData[37]
*312 FrameData[380]
*313 FrameData[381]
*314 FrameData[382]
*315 FrameData[383]
*316 FrameData[384]
*317 FrameData[385]
*318 FrameData[386]
*319 FrameData[387]
*320 FrameData[388]
*321 FrameData[389]
*322 FrameData[38]
*323 FrameData[390]
*324 FrameData[391]
*325 FrameData[392]
*326 FrameData[393]
*327 FrameData[394]
*328 FrameData[395]
*329 FrameData[396]
*330 FrameData[397]
*331 FrameData[398]
*332 FrameData[399]
*333 FrameData[39]
*334 FrameData[3]
*335 FrameData[400]
*336 FrameData[401]
*337 FrameData[402]
*338 FrameData[403]
*339 FrameData[404]
*340 FrameData[405]
*341 FrameData[406]
*342 FrameData[407]
*343 FrameData[408]
*344 FrameData[409]
*345 FrameData[40]
*346 FrameData[410]
*347 FrameData[411]
*348 FrameData[412]
*349 FrameData[413]
*350 FrameData[414]
*351 FrameData[415]
*352 FrameData[416]
*353 FrameData[417]
*354 FrameData[418]
*355 FrameData[419]
*356 FrameData[41]
*357 FrameData[420]
*358 FrameData[421]
*359 FrameData[422]
*360 FrameData[423]
*361 FrameData[424]
*362 FrameData[425]
*363 FrameData[426]
*364 FrameData[427]
*365 FrameData[428]
*366 FrameData[429]
*367 FrameData[42]
*368 FrameData[430]
*369 FrameData[431]
*370 FrameData[432]
*371 FrameData[433]
*372 FrameData[434]
*373 FrameData[435]
*374 FrameData[436]
*375 FrameData[437]
*376 FrameData[438]
*377 FrameData[439]
*378 FrameData[43]
*379 FrameData[440]
*380 FrameData[441]
*381 FrameData[442]
*382 FrameData[443]
*383 FrameData[444]
*384 FrameData[445]
*385 FrameData[446]
*386 FrameData[447]
*387 FrameData[44]
*388 FrameData[45]
*389 FrameData[46]
*390 FrameData[47]
*391 FrameData[48]
*392 FrameData[49]
*393 FrameData[4]
*394 FrameData[50]
*395 FrameData[51]
*396 FrameData[52]
*397 FrameData[53]
*398 FrameData[54]
*399 FrameData[55]
*400 FrameData[56]
*401 FrameData[57]
*402 FrameData[58]
*403 FrameData[59]
*404 FrameData[5]
*405 FrameData[60]
*406 FrameData[61]
*407 FrameData[62]
*408 FrameData[63]
*409 FrameData[64]
*410 FrameData[65]
*411 FrameData[66]
*412 FrameData[67]
*413 FrameData[68]
*414 FrameData[69]
*415 FrameData[6]
*416 FrameData[70]
*417 FrameData[71]
*418 FrameData[72]
*419 FrameData[73]
*420 FrameData[74]
*421 FrameData[75]
*422 FrameData[76]
*423 FrameData[77]
*424 FrameData[78]
*425 FrameData[79]
*426 FrameData[7]
*427 FrameData[80]
*428 FrameData[81]
*429 FrameData[82]
*430 FrameData[83]
*431 FrameData[84]
*432 FrameData[85]
*433 FrameData[86]
*434 FrameData[87]
*435 FrameData[88]
*436 FrameData[89]
*437 FrameData[8]
*438 FrameData[90]
*439 FrameData[91]
*440 FrameData[92]
*441 FrameData[93]
*442 FrameData[94]
*443 FrameData[95]
*444 FrameData[96]
*445 FrameData[97]
*446 FrameData[98]
*447 FrameData[99]
*448 FrameData[9]
*449 FrameStrobe[0]
*450 FrameStrobe[100]
*451 FrameStrobe[101]
*452 FrameStrobe[102]
*453 FrameStrobe[103]
*454 FrameStrobe[104]
*455 FrameStrobe[105]
*456 FrameStrobe[106]
*457 FrameStrobe[107]
*458 FrameStrobe[108]
*459 FrameStrobe[109]
*460 FrameStrobe[10]
*461 FrameStrobe[110]
*462 FrameStrobe[111]
*463 FrameStrobe[112]
*464 FrameStrobe[113]
*465 FrameStrobe[114]
*466 FrameStrobe[115]
*467 FrameStrobe[116]
*468 FrameStrobe[117]
*469 FrameStrobe[118]
*470 FrameStrobe[119]
*471 FrameStrobe[11]
*472 FrameStrobe[120]
*473 FrameStrobe[121]
*474 FrameStrobe[122]
*475 FrameStrobe[123]
*476 FrameStrobe[124]
*477 FrameStrobe[125]
*478 FrameStrobe[126]
*479 FrameStrobe[127]
*480 FrameStrobe[128]
*481 FrameStrobe[129]
*482 FrameStrobe[12]
*483 FrameStrobe[130]
*484 FrameStrobe[131]
*485 FrameStrobe[132]
*486 FrameStrobe[133]
*487 FrameStrobe[134]
*488 FrameStrobe[135]
*489 FrameStrobe[136]
*490 FrameStrobe[137]
*491 FrameStrobe[138]
*492 FrameStrobe[139]
*493 FrameStrobe[13]
*494 FrameStrobe[140]
*495 FrameStrobe[141]
*496 FrameStrobe[142]
*497 FrameStrobe[143]
*498 FrameStrobe[144]
*499 FrameStrobe[145]
*500 FrameStrobe[146]
*501 FrameStrobe[147]
*502 FrameStrobe[148]
*503 FrameStrobe[149]
*504 FrameStrobe[14]
*505 FrameStrobe[150]
*506 FrameStrobe[151]
*507 FrameStrobe[152]
*508 FrameStrobe[153]
*509 FrameStrobe[154]
*510 FrameStrobe[155]
*511 FrameStrobe[156]
*512 FrameStrobe[157]
*513 FrameStrobe[158]
*514 FrameStrobe[159]
*515 FrameStrobe[15]
*516 FrameStrobe[160]
*517 FrameStrobe[161]
*518 FrameStrobe[162]
*519 FrameStrobe[163]
*520 FrameStrobe[164]
*521 FrameStrobe[165]
*522 FrameStrobe[166]
*523 FrameStrobe[167]
*524 FrameStrobe[168]
*525 FrameStrobe[169]
*526 FrameStrobe[16]
*527 FrameStrobe[170]
*528 FrameStrobe[171]
*529 FrameStrobe[172]
*530 FrameStrobe[173]
*531 FrameStrobe[174]
*532 FrameStrobe[175]
*533 FrameStrobe[176]
*534 FrameStrobe[177]
*535 FrameStrobe[178]
*536 FrameStrobe[179]
*537 FrameStrobe[17]
*538 FrameStrobe[18]
*539 FrameStrobe[19]
*540 FrameStrobe[1]
*541 FrameStrobe[20]
*542 FrameStrobe[21]
*543 FrameStrobe[22]
*544 FrameStrobe[23]
*545 FrameStrobe[24]
*546 FrameStrobe[25]
*547 FrameStrobe[26]
*548 FrameStrobe[27]
*549 FrameStrobe[28]
*550 FrameStrobe[29]
*551 FrameStrobe[2]
*552 FrameStrobe[30]
*553 FrameStrobe[31]
*554 FrameStrobe[32]
*555 FrameStrobe[33]
*556 FrameStrobe[34]
*557 FrameStrobe[35]
*558 FrameStrobe[36]
*559 FrameStrobe[37]
*560 FrameStrobe[38]
*561 FrameStrobe[39]
*562 FrameStrobe[3]
*563 FrameStrobe[40]
*564 FrameStrobe[41]
*565 FrameStrobe[42]
*566 FrameStrobe[43]
*567 FrameStrobe[44]
*568 FrameStrobe[45]
*569 FrameStrobe[46]
*570 FrameStrobe[47]
*571 FrameStrobe[48]
*572 FrameStrobe[49]
*573 FrameStrobe[4]
*574 FrameStrobe[50]
*575 FrameStrobe[51]
*576 FrameStrobe[52]
*577 FrameStrobe[53]
*578 FrameStrobe[54]
*579 FrameStrobe[55]
*580 FrameStrobe[56]
*581 FrameStrobe[57]
*582 FrameStrobe[58]
*583 FrameStrobe[59]
*584 FrameStrobe[5]
*585 FrameStrobe[60]
*586 FrameStrobe[61]
*587 FrameStrobe[62]
*588 FrameStrobe[63]
*589 FrameStrobe[64]
*590 FrameStrobe[65]
*591 FrameStrobe[66]
*592 FrameStrobe[67]
*593 FrameStrobe[68]
*594 FrameStrobe[69]
*595 FrameStrobe[6]
*596 FrameStrobe[70]
*597 FrameStrobe[71]
*598 FrameStrobe[72]
*599 FrameStrobe[73]
*600 FrameStrobe[74]
*601 FrameStrobe[75]
*602 FrameStrobe[76]
*603 FrameStrobe[77]
*604 FrameStrobe[78]
*605 FrameStrobe[79]
*606 FrameStrobe[7]
*607 FrameStrobe[80]
*608 FrameStrobe[81]
*609 FrameStrobe[82]
*610 FrameStrobe[83]
*611 FrameStrobe[84]
*612 FrameStrobe[85]
*613 FrameStrobe[86]
*614 FrameStrobe[87]
*615 FrameStrobe[88]
*616 FrameStrobe[89]
*617 FrameStrobe[8]
*618 FrameStrobe[90]
*619 FrameStrobe[91]
*620 FrameStrobe[92]
*621 FrameStrobe[93]
*622 FrameStrobe[94]
*623 FrameStrobe[95]
*624 FrameStrobe[96]
*625 FrameStrobe[97]
*626 FrameStrobe[98]
*627 FrameStrobe[99]
*628 FrameStrobe[9]
*629 Tile_X0Y10_A_I_top
*630 Tile_X0Y10_A_O_top
*631 Tile_X0Y10_A_T_top
*632 Tile_X0Y10_A_config_C_bit0
*633 Tile_X0Y10_A_config_C_bit1
*634 Tile_X0Y10_A_config_C_bit2
*635 Tile_X0Y10_A_config_C_bit3
*636 Tile_X0Y10_B_I_top
*637 Tile_X0Y10_B_O_top
*638 Tile_X0Y10_B_T_top
*639 Tile_X0Y10_B_config_C_bit0
*640 Tile_X0Y10_B_config_C_bit1
*641 Tile_X0Y10_B_config_C_bit2
*642 Tile_X0Y10_B_config_C_bit3
*643 Tile_X0Y10_C_I_top
*644 Tile_X0Y10_C_O_top
*645 Tile_X0Y10_C_T_top
*646 Tile_X0Y10_C_config_C_bit0
*647 Tile_X0Y10_C_config_C_bit1
*648 Tile_X0Y10_C_config_C_bit2
*649 Tile_X0Y10_C_config_C_bit3
*650 Tile_X0Y10_D_I_top
*651 Tile_X0Y10_D_O_top
*652 Tile_X0Y10_D_T_top
*653 Tile_X0Y10_D_config_C_bit0
*654 Tile_X0Y10_D_config_C_bit1
*655 Tile_X0Y10_D_config_C_bit2
*656 Tile_X0Y10_D_config_C_bit3
*657 Tile_X0Y11_A_I_top
*658 Tile_X0Y11_A_O_top
*659 Tile_X0Y11_A_T_top
*660 Tile_X0Y11_A_config_C_bit0
*661 Tile_X0Y11_A_config_C_bit1
*662 Tile_X0Y11_A_config_C_bit2
*663 Tile_X0Y11_A_config_C_bit3
*664 Tile_X0Y11_B_I_top
*665 Tile_X0Y11_B_O_top
*666 Tile_X0Y11_B_T_top
*667 Tile_X0Y11_B_config_C_bit0
*668 Tile_X0Y11_B_config_C_bit1
*669 Tile_X0Y11_B_config_C_bit2
*670 Tile_X0Y11_B_config_C_bit3
*671 Tile_X0Y11_C_I_top
*672 Tile_X0Y11_C_O_top
*673 Tile_X0Y11_C_T_top
*674 Tile_X0Y11_C_config_C_bit0
*675 Tile_X0Y11_C_config_C_bit1
*676 Tile_X0Y11_C_config_C_bit2
*677 Tile_X0Y11_C_config_C_bit3
*678 Tile_X0Y11_D_I_top
*679 Tile_X0Y11_D_O_top
*680 Tile_X0Y11_D_T_top
*681 Tile_X0Y11_D_config_C_bit0
*682 Tile_X0Y11_D_config_C_bit1
*683 Tile_X0Y11_D_config_C_bit2
*684 Tile_X0Y11_D_config_C_bit3
*685 Tile_X0Y12_A_I_top
*686 Tile_X0Y12_A_O_top
*687 Tile_X0Y12_A_T_top
*688 Tile_X0Y12_A_config_C_bit0
*689 Tile_X0Y12_A_config_C_bit1
*690 Tile_X0Y12_A_config_C_bit2
*691 Tile_X0Y12_A_config_C_bit3
*692 Tile_X0Y12_B_I_top
*693 Tile_X0Y12_B_O_top
*694 Tile_X0Y12_B_T_top
*695 Tile_X0Y12_B_config_C_bit0
*696 Tile_X0Y12_B_config_C_bit1
*697 Tile_X0Y12_B_config_C_bit2
*698 Tile_X0Y12_B_config_C_bit3
*699 Tile_X0Y12_C_I_top
*700 Tile_X0Y12_C_O_top
*701 Tile_X0Y12_C_T_top
*702 Tile_X0Y12_C_config_C_bit0
*703 Tile_X0Y12_C_config_C_bit1
*704 Tile_X0Y12_C_config_C_bit2
*705 Tile_X0Y12_C_config_C_bit3
*706 Tile_X0Y12_D_I_top
*707 Tile_X0Y12_D_O_top
*708 Tile_X0Y12_D_T_top
*709 Tile_X0Y12_D_config_C_bit0
*710 Tile_X0Y12_D_config_C_bit1
*711 Tile_X0Y12_D_config_C_bit2
*712 Tile_X0Y12_D_config_C_bit3
*713 Tile_X0Y1_A_I_top
*714 Tile_X0Y1_A_O_top
*715 Tile_X0Y1_A_T_top
*716 Tile_X0Y1_A_config_C_bit0
*717 Tile_X0Y1_A_config_C_bit1
*718 Tile_X0Y1_A_config_C_bit2
*719 Tile_X0Y1_A_config_C_bit3
*720 Tile_X0Y1_B_I_top
*721 Tile_X0Y1_B_O_top
*722 Tile_X0Y1_B_T_top
*723 Tile_X0Y1_B_config_C_bit0
*724 Tile_X0Y1_B_config_C_bit1
*725 Tile_X0Y1_B_config_C_bit2
*726 Tile_X0Y1_B_config_C_bit3
*727 Tile_X0Y1_C_I_top
*728 Tile_X0Y1_C_O_top
*729 Tile_X0Y1_C_T_top
*730 Tile_X0Y1_C_config_C_bit0
*731 Tile_X0Y1_C_config_C_bit1
*732 Tile_X0Y1_C_config_C_bit2
*733 Tile_X0Y1_C_config_C_bit3
*734 Tile_X0Y1_D_I_top
*735 Tile_X0Y1_D_O_top
*736 Tile_X0Y1_D_T_top
*737 Tile_X0Y1_D_config_C_bit0
*738 Tile_X0Y1_D_config_C_bit1
*739 Tile_X0Y1_D_config_C_bit2
*740 Tile_X0Y1_D_config_C_bit3
*741 Tile_X0Y2_A_I_top
*742 Tile_X0Y2_A_O_top
*743 Tile_X0Y2_A_T_top
*744 Tile_X0Y2_A_config_C_bit0
*745 Tile_X0Y2_A_config_C_bit1
*746 Tile_X0Y2_A_config_C_bit2
*747 Tile_X0Y2_A_config_C_bit3
*748 Tile_X0Y2_B_I_top
*749 Tile_X0Y2_B_O_top
*750 Tile_X0Y2_B_T_top
*751 Tile_X0Y2_B_config_C_bit0
*752 Tile_X0Y2_B_config_C_bit1
*753 Tile_X0Y2_B_config_C_bit2
*754 Tile_X0Y2_B_config_C_bit3
*755 Tile_X0Y2_C_I_top
*756 Tile_X0Y2_C_O_top
*757 Tile_X0Y2_C_T_top
*758 Tile_X0Y2_C_config_C_bit0
*759 Tile_X0Y2_C_config_C_bit1
*760 Tile_X0Y2_C_config_C_bit2
*761 Tile_X0Y2_C_config_C_bit3
*762 Tile_X0Y2_D_I_top
*763 Tile_X0Y2_D_O_top
*764 Tile_X0Y2_D_T_top
*765 Tile_X0Y2_D_config_C_bit0
*766 Tile_X0Y2_D_config_C_bit1
*767 Tile_X0Y2_D_config_C_bit2
*768 Tile_X0Y2_D_config_C_bit3
*769 Tile_X0Y3_A_I_top
*770 Tile_X0Y3_A_O_top
*771 Tile_X0Y3_A_T_top
*772 Tile_X0Y3_A_config_C_bit0
*773 Tile_X0Y3_A_config_C_bit1
*774 Tile_X0Y3_A_config_C_bit2
*775 Tile_X0Y3_A_config_C_bit3
*776 Tile_X0Y3_B_I_top
*777 Tile_X0Y3_B_O_top
*778 Tile_X0Y3_B_T_top
*779 Tile_X0Y3_B_config_C_bit0
*780 Tile_X0Y3_B_config_C_bit1
*781 Tile_X0Y3_B_config_C_bit2
*782 Tile_X0Y3_B_config_C_bit3
*783 Tile_X0Y3_C_I_top
*784 Tile_X0Y3_C_O_top
*785 Tile_X0Y3_C_T_top
*786 Tile_X0Y3_C_config_C_bit0
*787 Tile_X0Y3_C_config_C_bit1
*788 Tile_X0Y3_C_config_C_bit2
*789 Tile_X0Y3_C_config_C_bit3
*790 Tile_X0Y3_D_I_top
*791 Tile_X0Y3_D_O_top
*792 Tile_X0Y3_D_T_top
*793 Tile_X0Y3_D_config_C_bit0
*794 Tile_X0Y3_D_config_C_bit1
*795 Tile_X0Y3_D_config_C_bit2
*796 Tile_X0Y3_D_config_C_bit3
*797 Tile_X0Y4_A_I_top
*798 Tile_X0Y4_A_O_top
*799 Tile_X0Y4_A_T_top
*800 Tile_X0Y4_A_config_C_bit0
*801 Tile_X0Y4_A_config_C_bit1
*802 Tile_X0Y4_A_config_C_bit2
*803 Tile_X0Y4_A_config_C_bit3
*804 Tile_X0Y4_B_I_top
*805 Tile_X0Y4_B_O_top
*806 Tile_X0Y4_B_T_top
*807 Tile_X0Y4_B_config_C_bit0
*808 Tile_X0Y4_B_config_C_bit1
*809 Tile_X0Y4_B_config_C_bit2
*810 Tile_X0Y4_B_config_C_bit3
*811 Tile_X0Y4_C_I_top
*812 Tile_X0Y4_C_O_top
*813 Tile_X0Y4_C_T_top
*814 Tile_X0Y4_C_config_C_bit0
*815 Tile_X0Y4_C_config_C_bit1
*816 Tile_X0Y4_C_config_C_bit2
*817 Tile_X0Y4_C_config_C_bit3
*818 Tile_X0Y4_D_I_top
*819 Tile_X0Y4_D_O_top
*820 Tile_X0Y4_D_T_top
*821 Tile_X0Y4_D_config_C_bit0
*822 Tile_X0Y4_D_config_C_bit1
*823 Tile_X0Y4_D_config_C_bit2
*824 Tile_X0Y4_D_config_C_bit3
*825 Tile_X0Y5_A_I_top
*826 Tile_X0Y5_A_O_top
*827 Tile_X0Y5_A_T_top
*828 Tile_X0Y5_A_config_C_bit0
*829 Tile_X0Y5_A_config_C_bit1
*830 Tile_X0Y5_A_config_C_bit2
*831 Tile_X0Y5_A_config_C_bit3
*832 Tile_X0Y5_B_I_top
*833 Tile_X0Y5_B_O_top
*834 Tile_X0Y5_B_T_top
*835 Tile_X0Y5_B_config_C_bit0
*836 Tile_X0Y5_B_config_C_bit1
*837 Tile_X0Y5_B_config_C_bit2
*838 Tile_X0Y5_B_config_C_bit3
*839 Tile_X0Y5_C_I_top
*840 Tile_X0Y5_C_O_top
*841 Tile_X0Y5_C_T_top
*842 Tile_X0Y5_C_config_C_bit0
*843 Tile_X0Y5_C_config_C_bit1
*844 Tile_X0Y5_C_config_C_bit2
*845 Tile_X0Y5_C_config_C_bit3
*846 Tile_X0Y5_D_I_top
*847 Tile_X0Y5_D_O_top
*848 Tile_X0Y5_D_T_top
*849 Tile_X0Y5_D_config_C_bit0
*850 Tile_X0Y5_D_config_C_bit1
*851 Tile_X0Y5_D_config_C_bit2
*852 Tile_X0Y5_D_config_C_bit3
*853 Tile_X0Y6_A_I_top
*854 Tile_X0Y6_A_O_top
*855 Tile_X0Y6_A_T_top
*856 Tile_X0Y6_A_config_C_bit0
*857 Tile_X0Y6_A_config_C_bit1
*858 Tile_X0Y6_A_config_C_bit2
*859 Tile_X0Y6_A_config_C_bit3
*860 Tile_X0Y6_B_I_top
*861 Tile_X0Y6_B_O_top
*862 Tile_X0Y6_B_T_top
*863 Tile_X0Y6_B_config_C_bit0
*864 Tile_X0Y6_B_config_C_bit1
*865 Tile_X0Y6_B_config_C_bit2
*866 Tile_X0Y6_B_config_C_bit3
*867 Tile_X0Y6_C_I_top
*868 Tile_X0Y6_C_O_top
*869 Tile_X0Y6_C_T_top
*870 Tile_X0Y6_C_config_C_bit0
*871 Tile_X0Y6_C_config_C_bit1
*872 Tile_X0Y6_C_config_C_bit2
*873 Tile_X0Y6_C_config_C_bit3
*874 Tile_X0Y6_D_I_top
*875 Tile_X0Y6_D_O_top
*876 Tile_X0Y6_D_T_top
*877 Tile_X0Y6_D_config_C_bit0
*878 Tile_X0Y6_D_config_C_bit1
*879 Tile_X0Y6_D_config_C_bit2
*880 Tile_X0Y6_D_config_C_bit3
*881 Tile_X0Y7_A_I_top
*882 Tile_X0Y7_A_O_top
*883 Tile_X0Y7_A_T_top
*884 Tile_X0Y7_A_config_C_bit0
*885 Tile_X0Y7_A_config_C_bit1
*886 Tile_X0Y7_A_config_C_bit2
*887 Tile_X0Y7_A_config_C_bit3
*888 Tile_X0Y7_B_I_top
*889 Tile_X0Y7_B_O_top
*890 Tile_X0Y7_B_T_top
*891 Tile_X0Y7_B_config_C_bit0
*892 Tile_X0Y7_B_config_C_bit1
*893 Tile_X0Y7_B_config_C_bit2
*894 Tile_X0Y7_B_config_C_bit3
*895 Tile_X0Y7_C_I_top
*896 Tile_X0Y7_C_O_top
*897 Tile_X0Y7_C_T_top
*898 Tile_X0Y7_C_config_C_bit0
*899 Tile_X0Y7_C_config_C_bit1
*900 Tile_X0Y7_C_config_C_bit2
*901 Tile_X0Y7_C_config_C_bit3
*902 Tile_X0Y7_D_I_top
*903 Tile_X0Y7_D_O_top
*904 Tile_X0Y7_D_T_top
*905 Tile_X0Y7_D_config_C_bit0
*906 Tile_X0Y7_D_config_C_bit1
*907 Tile_X0Y7_D_config_C_bit2
*908 Tile_X0Y7_D_config_C_bit3
*909 Tile_X0Y8_A_I_top
*910 Tile_X0Y8_A_O_top
*911 Tile_X0Y8_A_T_top
*912 Tile_X0Y8_A_config_C_bit0
*913 Tile_X0Y8_A_config_C_bit1
*914 Tile_X0Y8_A_config_C_bit2
*915 Tile_X0Y8_A_config_C_bit3
*916 Tile_X0Y8_B_I_top
*917 Tile_X0Y8_B_O_top
*918 Tile_X0Y8_B_T_top
*919 Tile_X0Y8_B_config_C_bit0
*920 Tile_X0Y8_B_config_C_bit1
*921 Tile_X0Y8_B_config_C_bit2
*922 Tile_X0Y8_B_config_C_bit3
*923 Tile_X0Y8_C_I_top
*924 Tile_X0Y8_C_O_top
*925 Tile_X0Y8_C_T_top
*926 Tile_X0Y8_C_config_C_bit0
*927 Tile_X0Y8_C_config_C_bit1
*928 Tile_X0Y8_C_config_C_bit2
*929 Tile_X0Y8_C_config_C_bit3
*930 Tile_X0Y8_D_I_top
*931 Tile_X0Y8_D_O_top
*932 Tile_X0Y8_D_T_top
*933 Tile_X0Y8_D_config_C_bit0
*934 Tile_X0Y8_D_config_C_bit1
*935 Tile_X0Y8_D_config_C_bit2
*936 Tile_X0Y8_D_config_C_bit3
*937 Tile_X0Y9_A_I_top
*938 Tile_X0Y9_A_O_top
*939 Tile_X0Y9_A_T_top
*940 Tile_X0Y9_A_config_C_bit0
*941 Tile_X0Y9_A_config_C_bit1
*942 Tile_X0Y9_A_config_C_bit2
*943 Tile_X0Y9_A_config_C_bit3
*944 Tile_X0Y9_B_I_top
*945 Tile_X0Y9_B_O_top
*946 Tile_X0Y9_B_T_top
*947 Tile_X0Y9_B_config_C_bit0
*948 Tile_X0Y9_B_config_C_bit1
*949 Tile_X0Y9_B_config_C_bit2
*950 Tile_X0Y9_B_config_C_bit3
*951 Tile_X0Y9_C_I_top
*952 Tile_X0Y9_C_O_top
*953 Tile_X0Y9_C_T_top
*954 Tile_X0Y9_C_config_C_bit0
*955 Tile_X0Y9_C_config_C_bit1
*956 Tile_X0Y9_C_config_C_bit2
*957 Tile_X0Y9_C_config_C_bit3
*958 Tile_X0Y9_D_I_top
*959 Tile_X0Y9_D_O_top
*960 Tile_X0Y9_D_T_top
*961 Tile_X0Y9_D_config_C_bit0
*962 Tile_X0Y9_D_config_C_bit1
*963 Tile_X0Y9_D_config_C_bit2
*964 Tile_X0Y9_D_config_C_bit3
*965 Tile_X1Y13_BOOT_top
*966 Tile_X1Y13_CONFIGURED_top
*967 Tile_X1Y13_RESET_top
*968 Tile_X1Y13_SLOT_top0
*969 Tile_X1Y13_SLOT_top1
*970 Tile_X1Y13_SLOT_top2
*971 Tile_X1Y13_SLOT_top3
*972 Tile_X8Y10_A_SRAM0
*973 Tile_X8Y10_A_SRAM1
*974 Tile_X8Y10_A_SRAM2
*975 Tile_X8Y10_A_SRAM3
*976 Tile_X8Y10_A_SRAM4
*977 Tile_X8Y10_A_SRAM5
*978 Tile_X8Y10_A_SRAM6
*979 Tile_X8Y10_A_SRAM7
*980 Tile_X8Y10_A_SRAM8
*981 Tile_X8Y10_CEN_SRAM
*982 Tile_X8Y10_CLK_SRAM
*983 Tile_X8Y10_CONFIGURED_top
*984 Tile_X8Y10_D_SRAM0
*985 Tile_X8Y10_D_SRAM1
*986 Tile_X8Y10_D_SRAM2
*987 Tile_X8Y10_D_SRAM3
*988 Tile_X8Y10_D_SRAM4
*989 Tile_X8Y10_D_SRAM5
*990 Tile_X8Y10_D_SRAM6
*991 Tile_X8Y10_D_SRAM7
*992 Tile_X8Y10_GWEN_SRAM
*993 Tile_X8Y10_Q_SRAM0
*994 Tile_X8Y10_Q_SRAM1
*995 Tile_X8Y10_Q_SRAM2
*996 Tile_X8Y10_Q_SRAM3
*997 Tile_X8Y10_Q_SRAM4
*998 Tile_X8Y10_Q_SRAM5
*999 Tile_X8Y10_Q_SRAM6
*1000 Tile_X8Y10_Q_SRAM7
*1001 Tile_X8Y10_WEN_SRAM0
*1002 Tile_X8Y10_WEN_SRAM1
*1003 Tile_X8Y10_WEN_SRAM2
*1004 Tile_X8Y10_WEN_SRAM3
*1005 Tile_X8Y10_WEN_SRAM4
*1006 Tile_X8Y10_WEN_SRAM5
*1007 Tile_X8Y10_WEN_SRAM6
*1008 Tile_X8Y10_WEN_SRAM7
*1009 Tile_X8Y12_A_SRAM0
*1010 Tile_X8Y12_A_SRAM1
*1011 Tile_X8Y12_A_SRAM2
*1012 Tile_X8Y12_A_SRAM3
*1013 Tile_X8Y12_A_SRAM4
*1014 Tile_X8Y12_A_SRAM5
*1015 Tile_X8Y12_A_SRAM6
*1016 Tile_X8Y12_A_SRAM7
*1017 Tile_X8Y12_A_SRAM8
*1018 Tile_X8Y12_CEN_SRAM
*1019 Tile_X8Y12_CLK_SRAM
*1020 Tile_X8Y12_CONFIGURED_top
*1021 Tile_X8Y12_D_SRAM0
*1022 Tile_X8Y12_D_SRAM1
*1023 Tile_X8Y12_D_SRAM2
*1024 Tile_X8Y12_D_SRAM3
*1025 Tile_X8Y12_D_SRAM4
*1026 Tile_X8Y12_D_SRAM5
*1027 Tile_X8Y12_D_SRAM6
*1028 Tile_X8Y12_D_SRAM7
*1029 Tile_X8Y12_GWEN_SRAM
*1030 Tile_X8Y12_Q_SRAM0
*1031 Tile_X8Y12_Q_SRAM1
*1032 Tile_X8Y12_Q_SRAM2
*1033 Tile_X8Y12_Q_SRAM3
*1034 Tile_X8Y12_Q_SRAM4
*1035 Tile_X8Y12_Q_SRAM5
*1036 Tile_X8Y12_Q_SRAM6
*1037 Tile_X8Y12_Q_SRAM7
*1038 Tile_X8Y12_WEN_SRAM0
*1039 Tile_X8Y12_WEN_SRAM1
*1040 Tile_X8Y12_WEN_SRAM2
*1041 Tile_X8Y12_WEN_SRAM3
*1042 Tile_X8Y12_WEN_SRAM4
*1043 Tile_X8Y12_WEN_SRAM5
*1044 Tile_X8Y12_WEN_SRAM6
*1045 Tile_X8Y12_WEN_SRAM7
*1046 Tile_X8Y2_A_SRAM0
*1047 Tile_X8Y2_A_SRAM1
*1048 Tile_X8Y2_A_SRAM2
*1049 Tile_X8Y2_A_SRAM3
*1050 Tile_X8Y2_A_SRAM4
*1051 Tile_X8Y2_A_SRAM5
*1052 Tile_X8Y2_A_SRAM6
*1053 Tile_X8Y2_A_SRAM7
*1054 Tile_X8Y2_A_SRAM8
*1055 Tile_X8Y2_CEN_SRAM
*1056 Tile_X8Y2_CLK_SRAM
*1057 Tile_X8Y2_CONFIGURED_top
*1058 Tile_X8Y2_D_SRAM0
*1059 Tile_X8Y2_D_SRAM1
*1060 Tile_X8Y2_D_SRAM2
*1061 Tile_X8Y2_D_SRAM3
*1062 Tile_X8Y2_D_SRAM4
*1063 Tile_X8Y2_D_SRAM5
*1064 Tile_X8Y2_D_SRAM6
*1065 Tile_X8Y2_D_SRAM7
*1066 Tile_X8Y2_GWEN_SRAM
*1067 Tile_X8Y2_Q_SRAM0
*1068 Tile_X8Y2_Q_SRAM1
*1069 Tile_X8Y2_Q_SRAM2
*1070 Tile_X8Y2_Q_SRAM3
*1071 Tile_X8Y2_Q_SRAM4
*1072 Tile_X8Y2_Q_SRAM5
*1073 Tile_X8Y2_Q_SRAM6
*1074 Tile_X8Y2_Q_SRAM7
*1075 Tile_X8Y2_WEN_SRAM0
*1076 Tile_X8Y2_WEN_SRAM1
*1077 Tile_X8Y2_WEN_SRAM2
*1078 Tile_X8Y2_WEN_SRAM3
*1079 Tile_X8Y2_WEN_SRAM4
*1080 Tile_X8Y2_WEN_SRAM5
*1081 Tile_X8Y2_WEN_SRAM6
*1082 Tile_X8Y2_WEN_SRAM7
*1083 Tile_X8Y4_A_SRAM0
*1084 Tile_X8Y4_A_SRAM1
*1085 Tile_X8Y4_A_SRAM2
*1086 Tile_X8Y4_A_SRAM3
*1087 Tile_X8Y4_A_SRAM4
*1088 Tile_X8Y4_A_SRAM5
*1089 Tile_X8Y4_A_SRAM6
*1090 Tile_X8Y4_A_SRAM7
*1091 Tile_X8Y4_A_SRAM8
*1092 Tile_X8Y4_CEN_SRAM
*1093 Tile_X8Y4_CLK_SRAM
*1094 Tile_X8Y4_CONFIGURED_top
*1095 Tile_X8Y4_D_SRAM0
*1096 Tile_X8Y4_D_SRAM1
*1097 Tile_X8Y4_D_SRAM2
*1098 Tile_X8Y4_D_SRAM3
*1099 Tile_X8Y4_D_SRAM4
*1100 Tile_X8Y4_D_SRAM5
*1101 Tile_X8Y4_D_SRAM6
*1102 Tile_X8Y4_D_SRAM7
*1103 Tile_X8Y4_GWEN_SRAM
*1104 Tile_X8Y4_Q_SRAM0
*1105 Tile_X8Y4_Q_SRAM1
*1106 Tile_X8Y4_Q_SRAM2
*1107 Tile_X8Y4_Q_SRAM3
*1108 Tile_X8Y4_Q_SRAM4
*1109 Tile_X8Y4_Q_SRAM5
*1110 Tile_X8Y4_Q_SRAM6
*1111 Tile_X8Y4_Q_SRAM7
*1112 Tile_X8Y4_WEN_SRAM0
*1113 Tile_X8Y4_WEN_SRAM1
*1114 Tile_X8Y4_WEN_SRAM2
*1115 Tile_X8Y4_WEN_SRAM3
*1116 Tile_X8Y4_WEN_SRAM4
*1117 Tile_X8Y4_WEN_SRAM5
*1118 Tile_X8Y4_WEN_SRAM6
*1119 Tile_X8Y4_WEN_SRAM7
*1120 Tile_X8Y6_A_SRAM0
*1121 Tile_X8Y6_A_SRAM1
*1122 Tile_X8Y6_A_SRAM2
*1123 Tile_X8Y6_A_SRAM3
*1124 Tile_X8Y6_A_SRAM4
*1125 Tile_X8Y6_A_SRAM5
*1126 Tile_X8Y6_A_SRAM6
*1127 Tile_X8Y6_A_SRAM7
*1128 Tile_X8Y6_A_SRAM8
*1129 Tile_X8Y6_CEN_SRAM
*1130 Tile_X8Y6_CLK_SRAM
*1131 Tile_X8Y6_CONFIGURED_top
*1132 Tile_X8Y6_D_SRAM0
*1133 Tile_X8Y6_D_SRAM1
*1134 Tile_X8Y6_D_SRAM2
*1135 Tile_X8Y6_D_SRAM3
*1136 Tile_X8Y6_D_SRAM4
*1137 Tile_X8Y6_D_SRAM5
*1138 Tile_X8Y6_D_SRAM6
*1139 Tile_X8Y6_D_SRAM7
*1140 Tile_X8Y6_GWEN_SRAM
*1141 Tile_X8Y6_Q_SRAM0
*1142 Tile_X8Y6_Q_SRAM1
*1143 Tile_X8Y6_Q_SRAM2
*1144 Tile_X8Y6_Q_SRAM3
*1145 Tile_X8Y6_Q_SRAM4
*1146 Tile_X8Y6_Q_SRAM5
*1147 Tile_X8Y6_Q_SRAM6
*1148 Tile_X8Y6_Q_SRAM7
*1149 Tile_X8Y6_WEN_SRAM0
*1150 Tile_X8Y6_WEN_SRAM1
*1151 Tile_X8Y6_WEN_SRAM2
*1152 Tile_X8Y6_WEN_SRAM3
*1153 Tile_X8Y6_WEN_SRAM4
*1154 Tile_X8Y6_WEN_SRAM5
*1155 Tile_X8Y6_WEN_SRAM6
*1156 Tile_X8Y6_WEN_SRAM7
*1157 Tile_X8Y8_A_SRAM0
*1158 Tile_X8Y8_A_SRAM1
*1159 Tile_X8Y8_A_SRAM2
*1160 Tile_X8Y8_A_SRAM3
*1161 Tile_X8Y8_A_SRAM4
*1162 Tile_X8Y8_A_SRAM5
*1163 Tile_X8Y8_A_SRAM6
*1164 Tile_X8Y8_A_SRAM7
*1165 Tile_X8Y8_A_SRAM8
*1166 Tile_X8Y8_CEN_SRAM
*1167 Tile_X8Y8_CLK_SRAM
*1168 Tile_X8Y8_CONFIGURED_top
*1169 Tile_X8Y8_D_SRAM0
*1170 Tile_X8Y8_D_SRAM1
*1171 Tile_X8Y8_D_SRAM2
*1172 Tile_X8Y8_D_SRAM3
*1173 Tile_X8Y8_D_SRAM4
*1174 Tile_X8Y8_D_SRAM5
*1175 Tile_X8Y8_D_SRAM6
*1176 Tile_X8Y8_D_SRAM7
*1177 Tile_X8Y8_GWEN_SRAM
*1178 Tile_X8Y8_Q_SRAM0
*1179 Tile_X8Y8_Q_SRAM1
*1180 Tile_X8Y8_Q_SRAM2
*1181 Tile_X8Y8_Q_SRAM3
*1182 Tile_X8Y8_Q_SRAM4
*1183 Tile_X8Y8_Q_SRAM5
*1184 Tile_X8Y8_Q_SRAM6
*1185 Tile_X8Y8_Q_SRAM7
*1186 Tile_X8Y8_WEN_SRAM0
*1187 Tile_X8Y8_WEN_SRAM1
*1188 Tile_X8Y8_WEN_SRAM2
*1189 Tile_X8Y8_WEN_SRAM3
*1190 Tile_X8Y8_WEN_SRAM4
*1191 Tile_X8Y8_WEN_SRAM5
*1192 Tile_X8Y8_WEN_SRAM6
*1193 Tile_X8Y8_WEN_SRAM7
*1194 UserCLK
*1197 Tile_X0Y10_E1BEG\[0\]
*1198 Tile_X0Y10_E1BEG\[1\]
*1199 Tile_X0Y10_E1BEG\[2\]
*1200 Tile_X0Y10_E1BEG\[3\]
*1201 Tile_X0Y10_E2BEG\[0\]
*1202 Tile_X0Y10_E2BEG\[1\]
*1203 Tile_X0Y10_E2BEG\[2\]
*1204 Tile_X0Y10_E2BEG\[3\]
*1205 Tile_X0Y10_E2BEG\[4\]
*1206 Tile_X0Y10_E2BEG\[5\]
*1207 Tile_X0Y10_E2BEG\[6\]
*1208 Tile_X0Y10_E2BEG\[7\]
*1209 Tile_X0Y10_E2BEGb\[0\]
*1210 Tile_X0Y10_E2BEGb\[1\]
*1211 Tile_X0Y10_E2BEGb\[2\]
*1212 Tile_X0Y10_E2BEGb\[3\]
*1213 Tile_X0Y10_E2BEGb\[4\]
*1214 Tile_X0Y10_E2BEGb\[5\]
*1215 Tile_X0Y10_E2BEGb\[6\]
*1216 Tile_X0Y10_E2BEGb\[7\]
*1217 Tile_X0Y10_E6BEG\[0\]
*1218 Tile_X0Y10_E6BEG\[10\]
*1219 Tile_X0Y10_E6BEG\[11\]
*1220 Tile_X0Y10_E6BEG\[1\]
*1221 Tile_X0Y10_E6BEG\[2\]
*1222 Tile_X0Y10_E6BEG\[3\]
*1223 Tile_X0Y10_E6BEG\[4\]
*1224 Tile_X0Y10_E6BEG\[5\]
*1225 Tile_X0Y10_E6BEG\[6\]
*1226 Tile_X0Y10_E6BEG\[7\]
*1227 Tile_X0Y10_E6BEG\[8\]
*1228 Tile_X0Y10_E6BEG\[9\]
*1229 Tile_X0Y10_EE4BEG\[0\]
*1230 Tile_X0Y10_EE4BEG\[10\]
*1231 Tile_X0Y10_EE4BEG\[11\]
*1232 Tile_X0Y10_EE4BEG\[12\]
*1233 Tile_X0Y10_EE4BEG\[13\]
*1234 Tile_X0Y10_EE4BEG\[14\]
*1235 Tile_X0Y10_EE4BEG\[15\]
*1236 Tile_X0Y10_EE4BEG\[1\]
*1237 Tile_X0Y10_EE4BEG\[2\]
*1238 Tile_X0Y10_EE4BEG\[3\]
*1239 Tile_X0Y10_EE4BEG\[4\]
*1240 Tile_X0Y10_EE4BEG\[5\]
*1241 Tile_X0Y10_EE4BEG\[6\]
*1242 Tile_X0Y10_EE4BEG\[7\]
*1243 Tile_X0Y10_EE4BEG\[8\]
*1244 Tile_X0Y10_EE4BEG\[9\]
*1245 Tile_X0Y10_FrameData_O\[0\]
*1246 Tile_X0Y10_FrameData_O\[10\]
*1247 Tile_X0Y10_FrameData_O\[11\]
*1248 Tile_X0Y10_FrameData_O\[12\]
*1249 Tile_X0Y10_FrameData_O\[13\]
*1250 Tile_X0Y10_FrameData_O\[14\]
*1251 Tile_X0Y10_FrameData_O\[15\]
*1252 Tile_X0Y10_FrameData_O\[16\]
*1253 Tile_X0Y10_FrameData_O\[17\]
*1254 Tile_X0Y10_FrameData_O\[18\]
*1255 Tile_X0Y10_FrameData_O\[19\]
*1256 Tile_X0Y10_FrameData_O\[1\]
*1257 Tile_X0Y10_FrameData_O\[20\]
*1258 Tile_X0Y10_FrameData_O\[21\]
*1259 Tile_X0Y10_FrameData_O\[22\]
*1260 Tile_X0Y10_FrameData_O\[23\]
*1261 Tile_X0Y10_FrameData_O\[24\]