*SPEF "ieee 1481-1999"
*DESIGN "S_term_single2"
*DATE "10:55:43 Friday November 28, 2025"
*VENDOR "The OpenROAD Project"
*PROGRAM "OpenROAD"
*VERSION "341650e72dad0dc8571822ff8c5d9c5e365327f7"
*DESIGN_FLOW "NAME_SCOPE LOCAL" "PIN_CAP NONE"
*DIVIDER /
*DELIMITER :
*BUS_DELIMITER []
*T_UNIT 1 NS
*C_UNIT 1 PF
*R_UNIT 1 OHM
*L_UNIT 1 HENRY

*NAME_MAP
*1 FrameData[0]
*2 FrameData[10]
*3 FrameData[11]
*4 FrameData[12]
*5 FrameData[13]
*6 FrameData[14]
*7 FrameData[15]
*8 FrameData[16]
*9 FrameData[17]
*10 FrameData[18]
*11 FrameData[19]
*12 FrameData[1]
*13 FrameData[20]
*14 FrameData[21]
*15 FrameData[22]
*16 FrameData[23]
*17 FrameData[24]
*18 FrameData[25]
*19 FrameData[26]
*20 FrameData[27]
*21 FrameData[28]
*22 FrameData[29]
*23 FrameData[2]
*24 FrameData[30]
*25 FrameData[31]
*26 FrameData[3]
*27 FrameData[4]
*28 FrameData[5]
*29 FrameData[6]
*30 FrameData[7]
*31 FrameData[8]
*32 FrameData[9]
*33 FrameData_O[0]
*34 FrameData_O[10]
*35 FrameData_O[11]
*36 FrameData_O[12]
*37 FrameData_O[13]
*38 FrameData_O[14]
*39 FrameData_O[15]
*40 FrameData_O[16]
*41 FrameData_O[17]
*42 FrameData_O[18]
*43 FrameData_O[19]
*44 FrameData_O[1]
*45 FrameData_O[20]
*46 FrameData_O[21]
*47 FrameData_O[22]
*48 FrameData_O[23]
*49 FrameData_O[24]
*50 FrameData_O[25]
*51 FrameData_O[26]
*52 FrameData_O[27]
*53 FrameData_O[28]
*54 FrameData_O[29]
*55 FrameData_O[2]
*56 FrameData_O[30]
*57 FrameData_O[31]
*58 FrameData_O[3]
*59 FrameData_O[4]
*60 FrameData_O[5]
*61 FrameData_O[6]
*62 FrameData_O[7]
*63 FrameData_O[8]
*64 FrameData_O[9]
*65 FrameStrobe[0]
*66 FrameStrobe[10]
*67 FrameStrobe[11]
*68 FrameStrobe[12]
*69 FrameStrobe[13]
*70 FrameStrobe[14]
*71 FrameStrobe[15]
*72 FrameStrobe[16]
*73 FrameStrobe[17]
*74 FrameStrobe[18]
*75 FrameStrobe[19]
*76 FrameStrobe[1]
*77 FrameStrobe[2]
*78 FrameStrobe[3]
*79 FrameStrobe[4]
*80 FrameStrobe[5]
*81 FrameStrobe[6]
*82 FrameStrobe[7]
*83 FrameStrobe[8]
*84 FrameStrobe[9]
*85 FrameStrobe_O[0]
*86 FrameStrobe_O[10]
*87 FrameStrobe_O[11]
*88 FrameStrobe_O[12]
*89 FrameStrobe_O[13]
*90 FrameStrobe_O[14]
*91 FrameStrobe_O[15]
*92 FrameStrobe_O[16]
*93 FrameStrobe_O[17]
*94 FrameStrobe_O[18]
*95 FrameStrobe_O[19]
*96 FrameStrobe_O[1]
*97 FrameStrobe_O[2]
*98 FrameStrobe_O[3]
*99 FrameStrobe_O[4]
*100 FrameStrobe_O[5]
*101 FrameStrobe_O[6]
*102 FrameStrobe_O[7]
*103 FrameStrobe_O[8]
*104 FrameStrobe_O[9]
*105 N1BEG[0]
*106 N1BEG[1]
*107 N1BEG[2]
*108 N1BEG[3]
*109 N2BEG[0]
*110 N2BEG[1]
*111 N2BEG[2]
*112 N2BEG[3]
*113 N2BEG[4]
*114 N2BEG[5]
*115 N2BEG[6]
*116 N2BEG[7]
*117 N2BEGb[0]
*118 N2BEGb[1]
*119 N2BEGb[2]
*120 N2BEGb[3]
*121 N2BEGb[4]
*122 N2BEGb[5]
*123 N2BEGb[6]
*124 N2BEGb[7]
*125 N4BEG[0]
*126 N4BEG[10]
*127 N4BEG[11]
*128 N4BEG[12]
*129 N4BEG[13]
*130 N4BEG[14]
*131 N4BEG[15]
*132 N4BEG[1]
*133 N4BEG[2]
*134 N4BEG[3]
*135 N4BEG[4]
*136 N4BEG[5]
*137 N4BEG[6]
*138 N4BEG[7]
*139 N4BEG[8]
*140 N4BEG[9]
*141 NN4BEG[0]
*142 NN4BEG[10]
*143 NN4BEG[11]
*144 NN4BEG[12]
*145 NN4BEG[13]
*146 NN4BEG[14]
*147 NN4BEG[15]
*148 NN4BEG[1]
*149 NN4BEG[2]
*150 NN4BEG[3]
*151 NN4BEG[4]
*152 NN4BEG[5]
*153 NN4BEG[6]
*154 NN4BEG[7]
*155 NN4BEG[8]
*156 NN4BEG[9]
*157 S1END[0]
*158 S1END[1]
*159 S1END[2]
*160 S1END[3]
*161 S2END[0]
*162 S2END[1]
*163 S2END[2]
*164 S2END[3]
*165 S2END[4]
*166 S2END[5]
*167 S2END[6]
*168 S2END[7]
*169 S2MID[0]
*170 S2MID[1]
*171 S2MID[2]
*172 S2MID[3]
*173 S2MID[4]
*174 S2MID[5]
*175 S2MID[6]
*176 S2MID[7]
*177 S4END[0]
*178 S4END[10]
*179 S4END[11]
*180 S4END[12]
*181 S4END[13]
*182 S4END[14]
*183 S4END[15]
*184 S4END[1]
*185 S4END[2]
*186 S4END[3]
*187 S4END[4]
*188 S4END[5]
*189 S4END[6]
*190 S4END[7]
*191 S4END[8]
*192 S4END[9]
*193 SS4END[0]
*194 SS4END[10]
*195 SS4END[11]
*196 SS4END[12]
*197 SS4END[13]
*198 SS4END[14]
*199 SS4END[15]
*200 SS4END[1]
*201 SS4END[2]
*202 SS4END[3]
*203 SS4END[4]
*204 SS4END[5]
*205 SS4END[6]
*206 SS4END[7]
*207 SS4END[8]
*208 SS4END[9]
*209 UserCLK
*210 UserCLKo
*213 net1
*214 net10
*215 net100
*216 net101
*217 net102
*218 net103
*219 net104
*220 net105
*221 net11
*222 net12
*223 net13
*224 net14
*225 net15
*226 net16
*227 net17
*228 net18
*229 net19
*230 net2
*231 net20
*232 net21
*233 net22
*234 net23
*235 net24
*236 net25
*237 net26
*238 net27
*239 net28
*240 net29
*241 net3
*242 net30
*243 net31
*244 net32
*245 net33
*246 net34
*247 net35
*248 net36
*249 net37
*250 net38
*251 net39
*252 net4
*253 net40
*254 net41
*255 net42
*256 net43
*257 net44
*258 net45
*259 net46
*260 net47
*261 net48
*262 net49
*263 net5
*264 net50
*265 net51
*266 net52
*267 net53
*268 net54
*269 net55
*270 net56
*271 net57
*272 net58
*273 net59
*274 net6
*275 net60
*276 net61
*277 net62
*278 net63
*279 net64
*280 net65
*281 net66
*282 net67
*283 net68
*284 net69
*285 net7
*286 net70
*287 net71
*288 net72
*289 net73
*290 net74
*291 net75
*292 net76
*293 net77
*294 net78
*295 net79
*296 net8
*297 net80
*298 net81
*299 net82
*300 net83
*301 net84
*302 net85
*303 net86
*304 net87
*305 net88
*306 net89
*307 net9
*308 net90
*309 net91
*310 net92
*311 net93
*312 net94
*313 net95
*314 net96
*315 net97
*316 net98
*317 net99
*318 FILLER_0_104
*319 FILLER_0_138
*320 FILLER_0_17
*321 FILLER_0_172
*322 FILLER_0_2
*323 FILLER_0_206
*324 FILLER_0_240
*325 FILLER_0_274
*326 FILLER_0_308
*327 FILLER_0_33
*328 FILLER_0_342
*329 FILLER_0_36
*330 FILLER_0_376
*331 FILLER_0_410
*332 FILLER_0_444
*333 FILLER_0_478
*334 FILLER_0_512
*335 FILLER_0_546
*336 FILLER_0_6
*337 FILLER_0_70
*338 FILLER_0_78
*339 FILLER_0_8
*340 FILLER_0_90
*341 FILLER_0_98
*342 FILLER_10_10
*343 FILLER_10_101
*344 FILLER_10_107
*345 FILLER_10_139
*346 FILLER_10_14
*347 FILLER_10_155
*348 FILLER_10_16
*349 FILLER_10_171
*350 FILLER_10_177
*351 FILLER_10_185
*352 FILLER_10_194
*353 FILLER_10_2
*354 FILLER_10_226
*355 FILLER_10_242
*356 FILLER_10_244
*357 FILLER_10_247
*358 FILLER_10_25
*359 FILLER_10_251
*360 FILLER_10_260
*361 FILLER_10_292
*362 FILLER_10_308
*363 FILLER_10_312
*364 FILLER_10_314
*365 FILLER_10_317
*366 FILLER_10_33
*367 FILLER_10_349
*368 FILLER_10_353
*369 FILLER_10_362
*370 FILLER_10_378
*371 FILLER_10_382
*372 FILLER_10_384
*373 FILLER_10_387
*374 FILLER_10_403
*375 FILLER_10_411
*376 FILLER_10_415
*377 FILLER_10_417
*378 FILLER_10_426
*379 FILLER_10_442
*380 FILLER_10_45
*381 FILLER_10_450
*382 FILLER_10_454
*383 FILLER_10_457
*384 FILLER_10_461
*385 FILLER_10_463
*386 FILLER_10_472
*387 FILLER_10_488
*388 FILLER_10_492
*389 FILLER_10_494
*390 FILLER_10_527
*391 FILLER_10_531
*392 FILLER_10_77
*393 FILLER_10_93
*394 FILLER_11_115
*395 FILLER_11_131
*396 FILLER_11_139
*397 FILLER_11_142
*398 FILLER_11_2
*399 FILLER_11_206
*400 FILLER_11_212
*401 FILLER_11_276
*402 FILLER_11_282
*403 FILLER_11_34
*404 FILLER_11_346
*405 FILLER_11_352
*406 FILLER_11_416
*407 FILLER_11_422
*408 FILLER_11_486
*409 FILLER_11_50
*410 FILLER_11_500
*411 FILLER_11_502
*412 FILLER_11_58
*413 FILLER_11_72
*414 FILLER_11_80
*415 FILLER_11_84
*416 FILLER_11_99
*417 FILLER_12_107
*418 FILLER_12_117
*419 FILLER_12_177
*420 FILLER_12_179
*421 FILLER_12_188
*422 FILLER_12_2
*423 FILLER_12_203
*424 FILLER_12_219
*425 FILLER_12_235
*426 FILLER_12_243
*427 FILLER_12_247
*428 FILLER_12_311
*429 FILLER_12_317
*430 FILLER_12_34
*431 FILLER_12_349
*432 FILLER_12_365
*433 FILLER_12_37
*434 FILLER_12_373
*435 FILLER_12_387
*436 FILLER_12_45
*437 FILLER_12_451
*438 FILLER_12_457
*439 FILLER_12_473
*440 FILLER_12_481
*441 FILLER_12_527
*442 FILLER_12_531
*443 FILLER_13_142
*444 FILLER_13_150
*445 FILLER_13_17
*446 FILLER_13_2
*447 FILLER_13_212
*448 FILLER_13_220
*449 FILLER_13_224
*450 FILLER_13_239
*451 FILLER_13_25
*452 FILLER_13_251
*453 FILLER_13_267
*454 FILLER_13_27
*455 FILLER_13_275
*456 FILLER_13_279
*457 FILLER_13_282
*458 FILLER_13_346
*459 FILLER_13_352
*460 FILLER_13_384
*461 FILLER_13_400
*462 FILLER_13_404
*463 FILLER_13_413
*464 FILLER_13_417
*465 FILLER_13_419
*466 FILLER_13_422
*467 FILLER_13_454
*468 FILLER_13_458
*469 FILLER_13_460
*470 FILLER_13_489
*471 FILLER_13_556
*472 FILLER_13_558
*473 FILLER_13_6
*474 FILLER_13_72
*475 FILLER_13_8
*476 FILLER_13_80
*477 FILLER_14_107
*478 FILLER_14_115
*479 FILLER_14_177
*480 FILLER_14_18
*481 FILLER_14_185
*482 FILLER_14_2
*483 FILLER_14_20
*484 FILLER_14_243
*485 FILLER_14_247
*486 FILLER_14_251
*487 FILLER_14_253
*488 FILLER_14_262
*489 FILLER_14_272
*490 FILLER_14_304
*491 FILLER_14_306
*492 FILLER_14_317
*493 FILLER_14_349
*494 FILLER_14_365
*495 FILLER_14_37
*496 FILLER_14_373
*497 FILLER_14_387
*498 FILLER_14_45
*499 FILLER_14_451
*500 FILLER_14_513
*501 FILLER_14_515
*502 FILLER_14_524
*503 FILLER_14_555
*504 FILLER_14_559
*505 FILLER_15_104
*506 FILLER_15_138
*507 FILLER_15_172
*508 FILLER_15_2
*509 FILLER_15_206
*510 FILLER_15_254
*511 FILLER_15_270
*512 FILLER_15_274
*513 FILLER_15_308
*514 FILLER_15_342
*515 FILLER_15_36
*516 FILLER_15_376
*517 FILLER_15_410
*518 FILLER_15_444
*519 FILLER_15_446
*520 FILLER_15_467
*521 FILLER_15_475
*522 FILLER_15_506
*523 FILLER_15_540
*524 FILLER_15_560
*525 FILLER_15_70
*526 FILLER_1_102
*527 FILLER_1_112
*528 FILLER_1_120
*529 FILLER_1_142
*530 FILLER_1_174
*531 FILLER_1_18
*532 FILLER_1_190
*533 FILLER_1_2
*534 FILLER_1_200
*535 FILLER_1_208
*536 FILLER_1_212
*537 FILLER_1_244
*538 FILLER_1_260
*539 FILLER_1_264
*540 FILLER_1_271
*541 FILLER_1_279
*542 FILLER_1_290
*543 FILLER_1_306
*544 FILLER_1_316
*545 FILLER_1_325
*546 FILLER_1_327
*547 FILLER_1_336
*548 FILLER_1_348
*549 FILLER_1_352
*550 FILLER_1_360
*551 FILLER_1_385
*552 FILLER_1_393
*553 FILLER_1_405
*554 FILLER_1_413
*555 FILLER_1_417
*556 FILLER_1_419
*557 FILLER_1_430
*558 FILLER_1_440
*559 FILLER_1_450
*560 FILLER_1_482
*561 FILLER_1_492
*562 FILLER_1_50
*563 FILLER_1_500
*564 FILLER_1_518
*565 FILLER_1_522
*566 FILLER_1_66
*567 FILLER_1_72
*568 FILLER_1_90
*569 FILLER_1_98
*570 FILLER_2_101
*571 FILLER_2_107
*572 FILLER_2_171
*573 FILLER_2_177
*574 FILLER_2_2
*575 FILLER_2_241
*576 FILLER_2_247
*577 FILLER_2_311
*578 FILLER_2_317
*579 FILLER_2_34
*580 FILLER_2_37
*581 FILLER_2_381
*582 FILLER_2_387
*583 FILLER_2_451
*584 FILLER_2_465
*585 FILLER_2_497
*586 FILLER_2_505
*587 FILLER_2_527
*588 FILLER_2_531
*589 FILLER_3_10
*590 FILLER_3_136
*591 FILLER_3_150
*592 FILLER_3_182
*593 FILLER_3_19
*594 FILLER_3_198
*595 FILLER_3_2
*596 FILLER_3_212
*597 FILLER_3_276
*598 FILLER_3_282
*599 FILLER_3_346
*600 FILLER_3_35
*601 FILLER_3_360
*602 FILLER_3_376
*603 FILLER_3_384
*604 FILLER_3_388
*605 FILLER_3_397
*606 FILLER_3_405
*607 FILLER_3_407
*608 FILLER_3_416
*609 FILLER_3_422
*610 FILLER_3_438
*611 FILLER_3_447
*612 FILLER_3_47
*613 FILLER_3_479
*614 FILLER_3_487
*615 FILLER_3_489
*616 FILLER_3_492
*617 FILLER_3_508
*618 FILLER_3_516
*619 FILLER_3_520
*620 FILLER_3_522
*621 FILLER_3_63
*622 FILLER_3_67
*623 FILLER_3_69
*624 FILLER_3_72
*625 FILLER_4_101
*626 FILLER_4_107
*627 FILLER_4_139
*628 FILLER_4_148
*629 FILLER_4_164
*630 FILLER_4_17
*631 FILLER_4_172
*632 FILLER_4_174
*633 FILLER_4_177
*634 FILLER_4_2
*635 FILLER_4_241
*636 FILLER_4_247
*637 FILLER_4_311
*638 FILLER_4_317
*639 FILLER_4_33
*640 FILLER_4_349
*641 FILLER_4_365
*642 FILLER_4_367
*643 FILLER_4_37
*644 FILLER_4_376
*645 FILLER_4_384
*646 FILLER_4_387
*647 FILLER_4_419
*648 FILLER_4_423
*649 FILLER_4_425
*650 FILLER_4_434
*651 FILLER_4_450
*652 FILLER_4_454
*653 FILLER_4_457
*654 FILLER_4_497
*655 FILLER_4_513
*656 FILLER_4_521
*657 FILLER_4_527
*658 FILLER_4_531
*659 FILLER_4_6
*660 FILLER_4_8
*661 FILLER_5_136
*662 FILLER_5_150
*663 FILLER_5_158
*664 FILLER_5_168
*665 FILLER_5_176
*666 FILLER_5_18
*667 FILLER_5_180
*668 FILLER_5_182
*669 FILLER_5_191
*670 FILLER_5_2
*671 FILLER_5_207
*672 FILLER_5_209
*673 FILLER_5_220
*674 FILLER_5_260
*675 FILLER_5_276
*676 FILLER_5_282
*677 FILLER_5_346
*678 FILLER_5_352
*679 FILLER_5_361
*680 FILLER_5_365
*681 FILLER_5_374
*682 FILLER_5_384
*683 FILLER_5_416
*684 FILLER_5_422
*685 FILLER_5_438
*686 FILLER_5_450
*687 FILLER_5_482
*688 FILLER_5_492
*689 FILLER_5_496
*690 FILLER_5_498
*691 FILLER_5_50
*692 FILLER_5_507
*693 FILLER_5_517
*694 FILLER_5_521
*695 FILLER_5_66
*696 FILLER_5_72
*697 FILLER_6_107
*698 FILLER_6_171
*699 FILLER_6_177
*700 FILLER_6_18
*701 FILLER_6_2
*702 FILLER_6_209
*703 FILLER_6_225
*704 FILLER_6_229
*705 FILLER_6_238
*706 FILLER_6_242
*707 FILLER_6_244
*708 FILLER_6_247
*709 FILLER_6_255
*710 FILLER_6_265
*711 FILLER_6_297
*712 FILLER_6_313
*713 FILLER_6_317
*714 FILLER_6_34
*715 FILLER_6_37
*716 FILLER_6_381
*717 FILLER_6_395
*718 FILLER_6_427
*719 FILLER_6_443
*720 FILLER_6_451
*721 FILLER_6_457
*722 FILLER_6_489
*723 FILLER_6_513
*724 FILLER_6_527
*725 FILLER_6_53
*726 FILLER_6_531
*727 FILLER_6_61
*728 FILLER_6_73
*729 FILLER_7_136
*730 FILLER_7_142
*731 FILLER_7_146
*732 FILLER_7_148
*733 FILLER_7_157
*734 FILLER_7_189
*735 FILLER_7_2
*736 FILLER_7_205
*737 FILLER_7_209
*738 FILLER_7_212
*739 FILLER_7_244
*740 FILLER_7_260
*741 FILLER_7_270
*742 FILLER_7_278
*743 FILLER_7_282
*744 FILLER_7_314
*745 FILLER_7_316
*746 FILLER_7_325
*747 FILLER_7_341
*748 FILLER_7_349
*749 FILLER_7_352
*750 FILLER_7_384
*751 FILLER_7_400
*752 FILLER_7_408
*753 FILLER_7_422
*754 FILLER_7_438
*755 FILLER_7_442
*756 FILLER_7_451
*757 FILLER_7_483
*758 FILLER_7_487
*759 FILLER_7_489
*760 FILLER_7_492
*761 FILLER_7_508
*762 FILLER_7_512
*763 FILLER_7_514
*764 FILLER_7_66
*765 FILLER_7_72
*766 FILLER_8_101
*767 FILLER_8_107
*768 FILLER_8_123
*769 FILLER_8_132
*770 FILLER_8_164
*771 FILLER_8_172
*772 FILLER_8_174
*773 FILLER_8_177
*774 FILLER_8_2
*775 FILLER_8_241
*776 FILLER_8_247
*777 FILLER_8_279
*778 FILLER_8_295
*779 FILLER_8_303
*780 FILLER_8_312
*781 FILLER_8_314
*782 FILLER_8_317
*783 FILLER_8_34
*784 FILLER_8_349
*785 FILLER_8_37
*786 FILLER_8_373
*787 FILLER_8_381
*788 FILLER_8_387
*789 FILLER_8_451
*790 FILLER_8_457
*791 FILLER_8_489
*792 FILLER_8_505
*793 FILLER_8_527
*794 FILLER_8_531
*795 FILLER_9_112
*796 FILLER_9_128
*797 FILLER_9_136
*798 FILLER_9_142
*799 FILLER_9_2
*800 FILLER_9_206
*801 FILLER_9_212
*802 FILLER_9_276
*803 FILLER_9_282
*804 FILLER_9_34
*805 FILLER_9_346
*806 FILLER_9_352
*807 FILLER_9_368
*808 FILLER_9_376
*809 FILLER_9_388
*810 FILLER_9_422
*811 FILLER_9_43
*812 FILLER_9_486
*813 FILLER_9_500
*814 FILLER_9_59
*815 FILLER_9_67
*816 FILLER_9_69
*817 FILLER_9_72
*818 PHY_EDGE_ROW_0_Left_16
*819 PHY_EDGE_ROW_0_Right_0
*820 PHY_EDGE_ROW_10_Left_26
*821 PHY_EDGE_ROW_10_Right_10
*822 PHY_EDGE_ROW_11_Left_27
*823 PHY_EDGE_ROW_11_Right_11
*824 PHY_EDGE_ROW_12_Left_28
*825 PHY_EDGE_ROW_12_Right_12
*826 PHY_EDGE_ROW_13_Left_29
*827 PHY_EDGE_ROW_13_Right_13
*828 PHY_EDGE_ROW_14_Left_30
*829 PHY_EDGE_ROW_14_Right_14
*830 PHY_EDGE_ROW_15_Left_31
*831 PHY_EDGE_ROW_15_Right_15
*832 PHY_EDGE_ROW_1_Left_17
*833 PHY_EDGE_ROW_1_Right_1
*834 PHY_EDGE_ROW_2_Left_18
*835 PHY_EDGE_ROW_2_Right_2
*836 PHY_EDGE_ROW_3_Left_19
*837 PHY_EDGE_ROW_3_Right_3
*838 PHY_EDGE_ROW_4_Left_20
*839 PHY_EDGE_ROW_4_Right_4
*840 PHY_EDGE_ROW_5_Left_21
*841 PHY_EDGE_ROW_5_Right_5
*842 PHY_EDGE_ROW_6_Left_22
*843 PHY_EDGE_ROW_6_Right_6
*844 PHY_EDGE_ROW_7_Left_23
*845 PHY_EDGE_ROW_7_Right_7
*846 PHY_EDGE_ROW_8_Left_24
*847 PHY_EDGE_ROW_8_Right_8
*848 PHY_EDGE_ROW_9_Left_25
*849 PHY_EDGE_ROW_9_Right_9
*850 TAP_TAPCELL_ROW_0_32
*851 TAP_TAPCELL_ROW_0_33
*852 TAP_TAPCELL_ROW_0_34
*853 TAP_TAPCELL_ROW_0_35
*854 TAP_TAPCELL_ROW_0_36
*855 TAP_TAPCELL_ROW_0_37
*856 TAP_TAPCELL_ROW_0_38
*857 TAP_TAPCELL_ROW_0_39
*858 TAP_TAPCELL_ROW_0_40
*859 TAP_TAPCELL_ROW_0_41
*860 TAP_TAPCELL_ROW_0_42
*861 TAP_TAPCELL_ROW_0_43
*862 TAP_TAPCELL_ROW_0_44
*863 TAP_TAPCELL_ROW_0_45
*864 TAP_TAPCELL_ROW_0_46
*865 TAP_TAPCELL_ROW_0_47
*866 TAP_TAPCELL_ROW_10_120
*867 TAP_TAPCELL_ROW_10_121
*868 TAP_TAPCELL_ROW_10_122
*869 TAP_TAPCELL_ROW_10_123
*870 TAP_TAPCELL_ROW_10_124
*871 TAP_TAPCELL_ROW_10_125
*872 TAP_TAPCELL_ROW_10_126
*873 TAP_TAPCELL_ROW_10_127
*874 TAP_TAPCELL_ROW_11_128
*875 TAP_TAPCELL_ROW_11_129
*876 TAP_TAPCELL_ROW_11_130
*877 TAP_TAPCELL_ROW_11_131
*878 TAP_TAPCELL_ROW_11_132
*879 TAP_TAPCELL_ROW_11_133
*880 TAP_TAPCELL_ROW_11_134
*881 TAP_TAPCELL_ROW_11_135
*882 TAP_TAPCELL_ROW_12_136
*883 TAP_TAPCELL_ROW_12_137
*884 TAP_TAPCELL_ROW_12_138
*885 TAP_TAPCELL_ROW_12_139
*886 TAP_TAPCELL_ROW_12_140
*887 TAP_TAPCELL_ROW_12_141
*888 TAP_TAPCELL_ROW_12_142
*889 TAP_TAPCELL_ROW_12_143
*890 TAP_TAPCELL_ROW_13_144
*891 TAP_TAPCELL_ROW_13_145
*892 TAP_TAPCELL_ROW_13_146
*893 TAP_TAPCELL_ROW_13_147
*894 TAP_TAPCELL_ROW_13_148
*895 TAP_TAPCELL_ROW_13_149
*896 TAP_TAPCELL_ROW_13_150
*897 TAP_TAPCELL_ROW_13_151
*898 TAP_TAPCELL_ROW_14_152
*899 TAP_TAPCELL_ROW_14_153
*900 TAP_TAPCELL_ROW_14_154
*901 TAP_TAPCELL_ROW_14_155
*902 TAP_TAPCELL_ROW_14_156
*903 TAP_TAPCELL_ROW_14_157
*904 TAP_TAPCELL_ROW_14_158
*905 TAP_TAPCELL_ROW_14_159
*906 TAP_TAPCELL_ROW_15_160
*907 TAP_TAPCELL_ROW_15_161
*908 TAP_TAPCELL_ROW_15_162
*909 TAP_TAPCELL_ROW_15_163
*910 TAP_TAPCELL_ROW_15_164
*911 TAP_TAPCELL_ROW_15_165
*912 TAP_TAPCELL_ROW_15_166
*913 TAP_TAPCELL_ROW_15_167
*914 TAP_TAPCELL_ROW_15_168
*915 TAP_TAPCELL_ROW_15_169
*916 TAP_TAPCELL_ROW_15_170
*917 TAP_TAPCELL_ROW_15_171
*918 TAP_TAPCELL_ROW_15_172
*919 TAP_TAPCELL_ROW_15_173
*920 TAP_TAPCELL_ROW_15_174
*921 TAP_TAPCELL_ROW_15_175
*922 TAP_TAPCELL_ROW_1_48
*923 TAP_TAPCELL_ROW_1_49
*924 TAP_TAPCELL_ROW_1_50
*925 TAP_TAPCELL_ROW_1_51
*926 TAP_TAPCELL_ROW_1_52
*927 TAP_TAPCELL_ROW_1_53
*928 TAP_TAPCELL_ROW_1_54
*929 TAP_TAPCELL_ROW_1_55
*930 TAP_TAPCELL_ROW_2_56
*931 TAP_TAPCELL_ROW_2_57
*932 TAP_TAPCELL_ROW_2_58
*933 TAP_TAPCELL_ROW_2_59
*934 TAP_TAPCELL_ROW_2_60
*935 TAP_TAPCELL_ROW_2_61
*936 TAP_TAPCELL_ROW_2_62
*937 TAP_TAPCELL_ROW_2_63
*938 TAP_TAPCELL_ROW_3_64
*939 TAP_TAPCELL_ROW_3_65
*940 TAP_TAPCELL_ROW_3_66
*941 TAP_TAPCELL_ROW_3_67
*942 TAP_TAPCELL_ROW_3_68
*943 TAP_TAPCELL_ROW_3_69
*944 TAP_TAPCELL_ROW_3_70
*945 TAP_TAPCELL_ROW_3_71
*946 TAP_TAPCELL_ROW_4_72
*947 TAP_TAPCELL_ROW_4_73
*948 TAP_TAPCELL_ROW_4_74
*949 TAP_TAPCELL_ROW_4_75
*950 TAP_TAPCELL_ROW_4_76
*951 TAP_TAPCELL_ROW_4_77
*952 TAP_TAPCELL_ROW_4_78
*953 TAP_TAPCELL_ROW_4_79
*954 TAP_TAPCELL_ROW_5_80
*955 TAP_TAPCELL_ROW_5_81
*956 TAP_TAPCELL_ROW_5_82
*957 TAP_TAPCELL_ROW_5_83
*958 TAP_TAPCELL_ROW_5_84
*959 TAP_TAPCELL_ROW_5_85
*960 TAP_TAPCELL_ROW_5_86
*961 TAP_TAPCELL_ROW_5_87
*962 TAP_TAPCELL_ROW_6_88
*963 TAP_TAPCELL_ROW_6_89
*964 TAP_TAPCELL_ROW_6_90
*965 TAP_TAPCELL_ROW_6_91
*966 TAP_TAPCELL_ROW_6_92
*967 TAP_TAPCELL_ROW_6_93
*968 TAP_TAPCELL_ROW_6_94
*969 TAP_TAPCELL_ROW_6_95
*970 TAP_TAPCELL_ROW_7_100
*971 TAP_TAPCELL_ROW_7_101
*972 TAP_TAPCELL_ROW_7_102
*973 TAP_TAPCELL_ROW_7_103
*974 TAP_TAPCELL_ROW_7_96
*975 TAP_TAPCELL_ROW_7_97
*976 TAP_TAPCELL_ROW_7_98
*977 TAP_TAPCELL_ROW_7_99
*978 TAP_TAPCELL_ROW_8_104
*979 TAP_TAPCELL_ROW_8_105
*980 TAP_TAPCELL_ROW_8_106
*981 TAP_TAPCELL_ROW_8_107
*982 TAP_TAPCELL_ROW_8_108
*983 TAP_TAPCELL_ROW_8_109
*984 TAP_TAPCELL_ROW_8_110
*985 TAP_TAPCELL_ROW_8_111
*986 TAP_TAPCELL_ROW_9_112
*987 TAP_TAPCELL_ROW_9_113
*988 TAP_TAPCELL_ROW_9_114
*989 TAP_TAPCELL_ROW_9_115
*990 TAP_TAPCELL_ROW_9_116
*991 TAP_TAPCELL_ROW_9_117
*992 TAP_TAPCELL_ROW_9_118
*993 TAP_TAPCELL_ROW_9_119
*994 _000_
*995 _001_
*996 _002_
*997 _003_
*998 _004_
*999 _005_
*1000 _006_
*1001 _007_
*1002 _008_
*1003 _009_
*1004 _010_
*1005 _011_
*1006 _012_
*1007 _013_
*1008 _014_
*1009 _015_
*1010 _016_
*1011 _017_
*1012 _018_
*1013 _019_
*1014 _020_
*1015 _021_
*1016 _022_
*1017 _023_
*1018 _024_
*1019 _025_
*1020 _026_
*1021 _027_
*1022 _028_
*1023 _029_
*1024 _030_
*1025 _031_
*1026 _032_
*1027 _033_
*1028 _034_
*1029 _035_
*1030 _036_
*1031 _037_
*1032 _038_
*1033 _039_
*1034 _040_
*1035 _041_
*1036 _042_
*1037 _043_
*1038 _044_
*1039 _045_
*1040 _046_
*1041 _047_
*1042 _048_
*1043 _049_
*1044 _050_
*1045 _051_
*1046 _052_
*1047 _053_
*1048 _054_
*1049 _055_
*1050 _056_
*1051 _057_
*1052 _058_
*1053 _059_
*1054 _060_
*1055 _061_
*1056 _062_
*1057 _063_
*1058 _064_
*1059 _065_
*1060 _066_
*1061 _067_
*1062 _068_
*1063 _069_
*1064 _070_
*1065 _071_
*1066 _072_
*1067 _073_
*1068 _074_
*1069 _075_
*1070 _076_
*1071 _077_
*1072 _078_
*1073 _079_
*1074 _080_
*1075 _081_
*1076 _082_
*1077 _083_
*1078 _084_
*1079 _085_
*1080 _086_
*1081 _087_
*1082 _088_
*1083 _089_
*1084 _090_
*1085 _091_
*1086 _092_
*1087 _093_
*1088 _094_
*1089 _095_
*1090 _096_
*1091 _097_
*1092 _098_
*1093 _099_
*1094 _100_
*1095 _101_
*1096 _102_
*1097 _103_
*1098 _104_
*1099 output1
*1100 output10
*1101 output100
*1102 output101
*1103 output102
*1104 output103
*1105 output104
*1106 output105
*1107 output11
*1108 output12
*1109 output13
*1110 output14
*1111 output15
*1112 output16
*1113 output17
*1114 output18
*1115 output19
*1116 output2
*1117 output20
*1118 output21
*1119 output22
*1120 output23
*1121 output24
*1122 output25
*1123 output26
*1124 output27
*1125 output28
*1126 output29
*1127 output3
*1128 output30
*1129 output31
*1130 output32
*1131 output33
*1132 output34
*1133 output35
*1134 output36
*1135 output37
*1136 output38
*1137 output39
*1138 output4
*1139 output40
*1140 output41
*1141 output42
*1142 output43
*1143 output44
*1144 output45
*1145 output46
*1146 output47
*1147 output48
*1148 output49
*1149 output5
*1150 output50
*1151 output51
*1152 output52
*1153 output53
*1154 output54
*1155 output55
*1156 output56
*1157 output57
*1158 output58
*1159 output59
*1160 output6
*1161 output60
*1162 output61
*1163 output62
*1164 output63
*1165 output64
*1166 output65
*1167 output66
*1168 output67
*1169 output68
*1170 output69
*1171 output7
*1172 output70
*1173 output71
*1174 output72
*1175 output73
*1176 output74
*1177 output75
*1178 output76
*1179 output77
*1180 output78
*1181 output79
*1182 output8
*1183 output80
*1184 output81
*1185 output82
*1186 output83
*1187 output84
*1188 output85
*1189 output86
*1190 output87
*1191 output88
*1192 output89
*1193 output9
*1194 output90
*1195 output91
*1196 output92
*1197 output93
*1198 output94
*1199 output95
*1200 output96
*1201 output97
*1202 output98
*1203 output99

*PORTS
FrameData[0] I
FrameData[10] I
FrameData[11] I
FrameData[12] I
FrameData[13] I
FrameData[14] I
FrameData[15] I
FrameData[16] I
FrameData[17] I
FrameData[18] I
FrameData[19] I
FrameData[1] I
FrameData[20] I
FrameData[21] I
FrameData[22] I
FrameData[23] I
FrameData[24] I
FrameData[25] I
FrameData[26] I
FrameData[27] I
FrameData[28] I
FrameData[29] I
FrameData[2] I
FrameData[30] I
FrameData[31] I
FrameData[3] I
FrameData[4] I
FrameData[5] I
FrameData[6] I
FrameData[7] I
FrameData[8] I
FrameData[9] I
FrameData_O[0] O
FrameData_O[10] O
FrameData_O[11] O
FrameData_O[12] O
FrameData_O[13] O
FrameData_O[14] O
FrameData_O[15] O
FrameData_O[16] O
FrameData_O[17] O
FrameData_O[18] O
FrameData_O[19] O
FrameData_O[1] O
FrameData_O[20] O
FrameData_O[21] O
FrameData_O[22] O
FrameData_O[23] O
FrameData_O[24] O
FrameData_O[25] O
FrameData_O[26] O
FrameData_O[27] O
FrameData_O[28] O
FrameData_O[29] O
FrameData_O[2] O
FrameData_O[30] O
FrameData_O[31] O
FrameData_O[3] O
FrameData_O[4] O
FrameData_O[5] O
FrameData_O[6] O
FrameData_O[7] O
FrameData_O[8] O
FrameData_O[9] O
FrameStrobe[0] I
FrameStrobe[10] I
FrameStrobe[11] I
FrameStrobe[12] I
FrameStrobe[13] I
FrameStrobe[14] I
FrameStrobe[15] I
FrameStrobe[16] I
FrameStrobe[17] I
FrameStrobe[18] I
FrameStrobe[19] I
FrameStrobe[1] I
FrameStrobe[2] I
FrameStrobe[3] I
FrameStrobe[4] I
FrameStrobe[5] I
FrameStrobe[6] I
FrameStrobe[7] I
FrameStrobe[8] I
FrameStrobe[9] I
FrameStrobe_O[0] O
FrameStrobe_O[10] O
FrameStrobe_O[11] O
FrameStrobe_O[12] O
FrameStrobe_O[13] O
FrameStrobe_O[14] O
FrameStrobe_O[15] O
FrameStrobe_O[16] O
FrameStrobe_O[17] O
FrameStrobe_O[18] O
FrameStrobe_O[19] O
FrameStrobe_O[1] O
FrameStrobe_O[2] O
FrameStrobe_O[3] O
FrameStrobe_O[4] O
FrameStrobe_O[5] O
FrameStrobe_O[6] O
FrameStrobe_O[7] O
FrameStrobe_O[8] O
FrameStrobe_O[9] O
N1BEG[0] O
N1BEG[1] O
N1BEG[2] O
N1BEG[3] O
N2BEG[0] O
N2BEG[1] O
N2BEG[2] O
N2BEG[3] O
N2BEG[4] O
N2BEG[5] O
N2BEG[6] O
N2BEG[7] O
N2BEGb[0] O
N2BEGb[1] O
N2BEGb[2] O
N2BEGb[3] O
N2BEGb[4] O
N2BEGb[5] O
N2BEGb[6] O
N2BEGb[7] O
N4BEG[0] O
N4BEG[10] O
N4BEG[11] O
N4BEG[12] O
N4BEG[13] O
N4BEG[14] O
N4BEG[15] O
N4BEG[1] O
N4BEG[2] O
N4BEG[3] O
N4BEG[4] O
N4BEG[5] O
N4BEG[6] O
N4BEG[7] O
N4BEG[8] O
N4BEG[9] O
NN4BEG[0] O
NN4BEG[10] O
NN4BEG[11] O
NN4BEG[12] O
NN4BEG[13] O
NN4BEG[14] O
NN4BEG[15] O
NN4BEG[1] O
NN4BEG[2] O
NN4BEG[3] O
NN4BEG[4] O
NN4BEG[5] O
NN4BEG[6] O
NN4BEG[7] O
NN4BEG[8] O
NN4BEG[9] O
S1END[0] I
S1END[1] I
S1END[2] I
S1END[3] I
S2END[0] I
S2END[1] I
S2END[2] I
S2END[3] I
S2END[4] I
S2END[5] I
S2END[6] I
S2END[7] I
S2MID[0] I
S2MID[1] I
S2MID[2] I
S2MID[3] I
S2MID[4] I
S2MID[5] I
S2MID[6] I
S2MID[7] I
S4END[0] I
S4END[10] I
S4END[11] I
S4END[12] I
S4END[13] I
S4END[14] I
S4END[15] I
S4END[1] I
S4END[2] I
S4END[3] I
S4END[4] I
S4END[5] I
S4END[6] I
S4END[7] I
S4END[8] I
S4END[9] I
SS4END[0] I
SS4END[10] I
SS4END[11] I
SS4END[12] I
SS4END[13] I
SS4END[14] I
SS4END[15] I
SS4END[1] I
SS4END[2] I
SS4END[3] I
SS4END[4] I
SS4END[5] I
SS4END[6] I
SS4END[7] I
SS4END[8] I
SS4END[9] I
UserCLK I
UserCLKo O

*D_NET *1 0.00977352
*CONN
*P FrameData[0] I
*I *994:I I *D gf180mcu_fd_sc_mcu7t5v0__buf_2
*CAP
1 FrameData[0] 0.00110913
2 *994:I 0.00110913
3 *994:I *995:I 0.00476148
4 *994:I *65:19 0.002788
5 *994:I *213:14 5.78854e-06
*RES
1 FrameData[0] *994:I 27.315 
*END

*D_NET *2 0.0643708
*CONN
*P FrameData[10] I
*I *1004:I I *D gf180mcu_fd_sc_mcu7t5v0__buf_2
*CAP
1 FrameData[10] 0.00158413
2 *1004:I 0.00130439
3 *2:31 0.00299071
4 *2:9 0.00327046
5 *1004:I *996:I 0
6 *1004:I *1124:I 0.000408381
7 *1004:I *1151:I 9.85004e-05
8 *1004:I *1152:I 7.78406e-05
9 *1004:I *3:49 0
10 *1004:I *23:41 0.00727945
11 *1004:I *26:53 0.00317193
12 *1004:I *73:19 0.00275975
13 *1004:I *84:21 0.000213358
14 *1004:I *214:52 6.80596e-05
15 *2:9 *1003:I 0.000263509
16 *2:9 *1052:I 0
17 *2:9 *1158:I 0.000685284
18 *2:9 *1201:I 0.0017891
19 *2:9 *3:13 0.00101814
20 *2:9 *23:29 0.00192984
21 *2:9 *172:23 0.000284104
22 *2:9 *180:61 6.5623e-05
23 *2:9 *271:18 0.00254851
24 *2:9 *281:24 0.00632432
25 *2:9 *284:42 0.0010338
26 *2:9 *296:22 0.000570441
27 *2:9 *302:14 0.00689536
28 *2:9 *306:42 3.31858e-06
29 *2:31 *1093:I 0.00154282
30 *2:31 *1098:I 5.20752e-05
31 *2:31 *1099:I 0.000244532
32 *2:31 *4:57 0.00306751
33 *2:31 *23:41 0.00437959
34 *2:31 *26:53 0.00117173
35 *2:31 *31:55 0.000392186
36 *2:31 *67:21 0
37 *2:31 *70:17 6.41364e-05
38 *2:31 *181:21 0.000340667
39 *2:31 *192:17 0.00307085
40 *2:31 *202:21 3.53802e-05
41 *2:31 *215:20 0.000102753
42 *2:31 *218:42 4.28139e-06
43 *2:31 *220:20 0.000109265
44 *2:31 *244:32 0.00295225
45 *2:31 *309:10 0.00020248
*RES
1 FrameData[10] *2:9 49.005 
2 *2:9 *2:31 49.95 
3 *2:31 *1004:I 43.11 
*END

*D_NET *3 0.0615677
*CONN
*P FrameData[11] I
*I *1005:I I *D gf180mcu_fd_sc_mcu7t5v0__buf_2
*CAP
1 FrameData[11] 0.00135644
2 *1005:I 0
3 *3:49 0.00185155
4 *3:35 0.0037343
5 *3:13 0.00323919
6 *3:13 *1051:I 0.00280953
7 *3:13 *1052:I 5.13763e-05
8 *3:13 *1075:I 0.00147963
9 *3:13 *1158:I 0.00426813
10 *3:13 *4:19 0.000992064
11 *3:13 *31:11 3.49509e-05
12 *3:13 *191:23 0.0049275
13 *3:13 *273:12 0.00307841
14 *3:13 *284:42 3.15004e-05
15 *3:35 *1057:I 8.85532e-05
16 *3:35 *25:17 0.00817278
17 *3:35 *28:47 0.00169912
18 *3:35 *158:35 2.44598e-07
19 *3:35 *185:21 0.00152631
20 *3:35 *200:23 0.000472399
21 *3:35 *235:48 0.00305262
22 *3:35 *279:18 4.99132e-05
23 *3:35 *283:78 0
24 *3:35 *284:42 0.000109332
25 *3:35 *294:24 2.60586e-05
26 *3:35 *296:22 0.000302513
27 *3:35 *306:16 0.000510356
28 *3:49 *1011:I 0.000735021
29 *3:49 *1041:I 0.00538731
30 *3:49 *1065:I 0.000438647
31 *3:49 *1090:I 0.00159194
32 *3:49 *1106:I 0
33 *3:49 *1132:I 4.45837e-05
34 *3:49 *80:43 0.000382884
35 *3:49 *244:50 0
36 *3:49 *246:20 0.00140944
37 *3:49 *251:10 0.00368669
38 *3:49 *255:24 0.000937511
39 *3:49 *306:16 6.59951e-05
40 *3:49 *315:8 0.00200476
41 *1004:I *3:49 0
42 *2:9 *3:13 0.00101814
*RES
1 FrameData[11] *3:13 48.825 
2 *3:13 *3:35 48.87 
3 *3:35 *3:49 49.32 
4 *3:49 *1005:I 4.5 
*END

*D_NET *4 0.0639951
*CONN
*P FrameData[12] I
*I *1006:I I *D gf180mcu_fd_sc_mcu7t5v0__buf_2
*CAP
1 FrameData[12] 0.00124243
2 *1006:I 0.000653119
3 *4:57 0.00265314
4 *4:35 0.00312147
5 *4:19 0.00236389
6 *1006:I *1011:I 6.99359e-06
7 *1006:I *1016:I 0.000656755
8 *1006:I *1083:I 0.000214794
9 *1006:I *1116:I 0.0013827
10 *1006:I *1127:I 0.000671844
11 *1006:I *68:29 6.71551e-05
12 *1006:I *244:50 0.000166798
13 *1006:I *246:20 0.000213576
14 *1006:I *262:18 3.60213e-05
15 *1006:I *264:20 0.000380384
16 *1006:I *265:20 0.000645585
17 *1006:I *296:34 0.00346899
18 *4:19 *1007:I 0.000253471
19 *4:19 *1012:I 5.06246e-06
20 *4:19 *1073:I 0.00119357
21 *4:19 *31:11 0.000444199
22 *4:19 *179:17 0.00124218
23 *4:19 *191:23 0.00133567
24 *4:19 *238:20 0.00159362
25 *4:19 *244:16 0.00476932
26 *4:19 *263:22 0.000897346
27 *4:19 *273:12 0.0041352
28 *4:19 *276:16 0.000785935
29 *4:19 *299:20 6.2493e-05
30 *4:35 *1192:I 3.01487e-05
31 *4:35 *19:63 0.000272843
32 *4:35 *29:33 0
33 *4:35 *30:29 0.000985876
34 *4:35 *76:25 0.000940517
35 *4:35 *78:21 0.00354149
36 *4:35 *82:21 0.000172585
37 *4:35 *173:17 0
38 *4:35 *200:23 0.000694945
39 *4:35 *213:28 5.13763e-05
40 *4:35 *216:20 0.00349561
41 *4:35 *218:24 0.00103882
42 *4:35 *277:20 0.005247
43 *4:35 *316:20 6.2083e-06
44 *4:57 *1034:I 4.15027e-05
45 *4:57 *1041:I 0
46 *4:57 *1085:I 2.91922e-05
47 *4:57 *1088:I 1.32638e-05
48 *4:57 *1093:I 0.0027035
49 *4:57 *1099:I 0.0017823
50 *4:57 *23:41 0.00111951
51 *4:57 *31:43 7.23132e-05
52 *4:57 *31:55 0.000396886
53 *4:57 *67:21 0.00083124
54 *4:57 *68:29 6.082e-05
55 *4:57 *84:21 0.000434866
56 *4:57 *195:29 0.000253384
57 *4:57 *222:66 0.000496982
58 *4:57 *244:50 0.00034617
59 *4:57 *262:18 9.3226e-06
60 *4:57 *265:20 0.000203164
61 *2:31 *4:57 0.00306751
62 *3:13 *4:19 0.000992064
*RES
1 FrameData[12] *4:19 49.545 
2 *4:19 *4:35 47.16 
3 *4:35 *4:57 46.89 
4 *4:57 *1006:I 31.23 
*END

*D_NET *5 0.0126103
*CONN
*P FrameData[13] I
*I *1007:I I *D gf180mcu_fd_sc_mcu7t5v0__buf_2
*CAP
1 FrameData[13] 0.00108333
2 *1007:I 0.00108333
3 *1007:I *1008:I 0.0015322
4 *1007:I *1012:I 0.00120194
5 *1007:I *1047:I 0.00247336
6 *1007:I *1073:I 0.000941864
7 *1007:I *1154:I 0.00146327
8 *1007:I *17:13 0.000234115
9 *1007:I *65:19 9.3226e-06