*SPEF "ieee 1481-1999"
*DESIGN "S_term_single2"
*DATE "22:39:24 Friday December 05, 2025"
*VENDOR "The OpenROAD Project"
*PROGRAM "OpenROAD"
*VERSION "341650e72dad0dc8571822ff8c5d9c5e365327f7"
*DESIGN_FLOW "NAME_SCOPE LOCAL" "PIN_CAP NONE"
*DIVIDER /
*DELIMITER :
*BUS_DELIMITER []
*T_UNIT 1 NS
*C_UNIT 1 PF
*R_UNIT 1 OHM
*L_UNIT 1 HENRY

*NAME_MAP
*1 FrameData[0]
*2 FrameData[10]
*3 FrameData[11]
*4 FrameData[12]
*5 FrameData[13]
*6 FrameData[14]
*7 FrameData[15]
*8 FrameData[16]
*9 FrameData[17]
*10 FrameData[18]
*11 FrameData[19]
*12 FrameData[1]
*13 FrameData[20]
*14 FrameData[21]
*15 FrameData[22]
*16 FrameData[23]
*17 FrameData[24]
*18 FrameData[25]
*19 FrameData[26]
*20 FrameData[27]
*21 FrameData[28]
*22 FrameData[29]
*23 FrameData[2]
*24 FrameData[30]
*25 FrameData[31]
*26 FrameData[3]
*27 FrameData[4]
*28 FrameData[5]
*29 FrameData[6]
*30 FrameData[7]
*31 FrameData[8]
*32 FrameData[9]
*33 FrameData_O[0]
*34 FrameData_O[10]
*35 FrameData_O[11]
*36 FrameData_O[12]
*37 FrameData_O[13]
*38 FrameData_O[14]
*39 FrameData_O[15]
*40 FrameData_O[16]
*41 FrameData_O[17]
*42 FrameData_O[18]
*43 FrameData_O[19]
*44 FrameData_O[1]
*45 FrameData_O[20]
*46 FrameData_O[21]
*47 FrameData_O[22]
*48 FrameData_O[23]
*49 FrameData_O[24]
*50 FrameData_O[25]
*51 FrameData_O[26]
*52 FrameData_O[27]
*53 FrameData_O[28]
*54 FrameData_O[29]
*55 FrameData_O[2]
*56 FrameData_O[30]
*57 FrameData_O[31]
*58 FrameData_O[3]
*59 FrameData_O[4]
*60 FrameData_O[5]
*61 FrameData_O[6]
*62 FrameData_O[7]
*63 FrameData_O[8]
*64 FrameData_O[9]
*65 FrameStrobe[0]
*66 FrameStrobe[10]
*67 FrameStrobe[11]
*68 FrameStrobe[12]
*69 FrameStrobe[13]
*70 FrameStrobe[14]
*71 FrameStrobe[15]
*72 FrameStrobe[16]
*73 FrameStrobe[17]
*74 FrameStrobe[18]
*75 FrameStrobe[19]
*76 FrameStrobe[1]
*77 FrameStrobe[2]
*78 FrameStrobe[3]
*79 FrameStrobe[4]
*80 FrameStrobe[5]
*81 FrameStrobe[6]
*82 FrameStrobe[7]
*83 FrameStrobe[8]
*84 FrameStrobe[9]
*85 FrameStrobe_O[0]
*86 FrameStrobe_O[10]
*87 FrameStrobe_O[11]
*88 FrameStrobe_O[12]
*89 FrameStrobe_O[13]
*90 FrameStrobe_O[14]
*91 FrameStrobe_O[15]
*92 FrameStrobe_O[16]
*93 FrameStrobe_O[17]
*94 FrameStrobe_O[18]
*95 FrameStrobe_O[19]
*96 FrameStrobe_O[1]
*97 FrameStrobe_O[2]
*98 FrameStrobe_O[3]
*99 FrameStrobe_O[4]
*100 FrameStrobe_O[5]
*101 FrameStrobe_O[6]
*102 FrameStrobe_O[7]
*103 FrameStrobe_O[8]
*104 FrameStrobe_O[9]
*105 N1BEG[0]
*106 N1BEG[1]
*107 N1BEG[2]
*108 N1BEG[3]
*109 N2BEG[0]
*110 N2BEG[1]
*111 N2BEG[2]
*112 N2BEG[3]
*113 N2BEG[4]
*114 N2BEG[5]
*115 N2BEG[6]
*116 N2BEG[7]
*117 N2BEGb[0]
*118 N2BEGb[1]
*119 N2BEGb[2]
*120 N2BEGb[3]
*121 N2BEGb[4]
*122 N2BEGb[5]
*123 N2BEGb[6]
*124 N2BEGb[7]
*125 N4BEG[0]
*126 N4BEG[10]
*127 N4BEG[11]
*128 N4BEG[12]
*129 N4BEG[13]
*130 N4BEG[14]
*131 N4BEG[15]
*132 N4BEG[1]
*133 N4BEG[2]
*134 N4BEG[3]
*135 N4BEG[4]
*136 N4BEG[5]
*137 N4BEG[6]
*138 N4BEG[7]
*139 N4BEG[8]
*140 N4BEG[9]
*141 NN4BEG[0]
*142 NN4BEG[10]
*143 NN4BEG[11]
*144 NN4BEG[12]
*145 NN4BEG[13]
*146 NN4BEG[14]
*147 NN4BEG[15]
*148 NN4BEG[1]
*149 NN4BEG[2]
*150 NN4BEG[3]
*151 NN4BEG[4]
*152 NN4BEG[5]
*153 NN4BEG[6]
*154 NN4BEG[7]
*155 NN4BEG[8]
*156 NN4BEG[9]
*157 S1END[0]
*158 S1END[1]
*159 S1END[2]
*160 S1END[3]
*161 S2END[0]
*162 S2END[1]
*163 S2END[2]
*164 S2END[3]
*165 S2END[4]
*166 S2END[5]
*167 S2END[6]
*168 S2END[7]
*169 S2MID[0]
*170 S2MID[1]
*171 S2MID[2]
*172 S2MID[3]
*173 S2MID[4]
*174 S2MID[5]
*175 S2MID[6]
*176 S2MID[7]
*177 S4END[0]
*178 S4END[10]
*179 S4END[11]
*180 S4END[12]
*181 S4END[13]
*182 S4END[14]
*183 S4END[15]
*184 S4END[1]
*185 S4END[2]
*186 S4END[3]
*187 S4END[4]
*188 S4END[5]
*189 S4END[6]
*190 S4END[7]
*191 S4END[8]
*192 S4END[9]
*193 SS4END[0]
*194 SS4END[10]
*195 SS4END[11]
*196 SS4END[12]
*197 SS4END[13]
*198 SS4END[14]
*199 SS4END[15]
*200 SS4END[1]
*201 SS4END[2]
*202 SS4END[3]
*203 SS4END[4]
*204 SS4END[5]
*205 SS4END[6]
*206 SS4END[7]
*207 SS4END[8]
*208 SS4END[9]
*209 UserCLK
*210 UserCLKo
*213 net1
*214 net10
*215 net100
*216 net101
*217 net102
*218 net103
*219 net104
*220 net105
*221 net11
*222 net12
*223 net13
*224 net14
*225 net15
*226 net16
*227 net17
*228 net18
*229 net19
*230 net2
*231 net20
*232 net21
*233 net22
*234 net23
*235 net24
*236 net25
*237 net26
*238 net27
*239 net28
*240 net29
*241 net3
*242 net30
*243 net31
*244 net32
*245 net33
*246 net34
*247 net35
*248 net36
*249 net37
*250 net38
*251 net39
*252 net4
*253 net40
*254 net41
*255 net42
*256 net43
*257 net44
*258 net45
*259 net46
*260 net47
*261 net48
*262 net49
*263 net5
*264 net50
*265 net51
*266 net52
*267 net53
*268 net54
*269 net55
*270 net56
*271 net57
*272 net58
*273 net59
*274 net6
*275 net60
*276 net61
*277 net62
*278 net63
*279 net64
*280 net65
*281 net66
*282 net67
*283 net68
*284 net69
*285 net7
*286 net70
*287 net71
*288 net72
*289 net73
*290 net74
*291 net75
*292 net76
*293 net77
*294 net78
*295 net79
*296 net8
*297 net80
*298 net81
*299 net82
*300 net83
*301 net84
*302 net85
*303 net86
*304 net87
*305 net88
*306 net89
*307 net9
*308 net90
*309 net91
*310 net92
*311 net93
*312 net94
*313 net95
*314 net96
*315 net97
*316 net98
*317 net99
*318 ANTENNA__000__I
*319 ANTENNA__001__I
*320 ANTENNA__002__I
*321 ANTENNA__003__I
*322 ANTENNA__004__I
*323 ANTENNA__005__I
*324 ANTENNA__006__I
*325 ANTENNA__007__I
*326 ANTENNA__008__I
*327 ANTENNA__009__I
*328 ANTENNA__010__I
*329 ANTENNA__011__I
*330 ANTENNA__012__I
*331 ANTENNA__013__I
*332 ANTENNA__014__I
*333 ANTENNA__015__I
*334 ANTENNA__016__I
*335 ANTENNA__017__I
*336 ANTENNA__018__I
*337 ANTENNA__019__I
*338 ANTENNA__020__I
*339 ANTENNA__021__I
*340 ANTENNA__022__I
*341 ANTENNA__023__I
*342 ANTENNA__024__I
*343 ANTENNA__025__I
*344 ANTENNA__026__I
*345 ANTENNA__027__I
*346 ANTENNA__028__I
*347 ANTENNA__029__I
*348 ANTENNA__030__I
*349 ANTENNA__031__I
*350 ANTENNA__032__I
*351 ANTENNA__033__I
*352 ANTENNA__034__I
*353 ANTENNA__035__I
*354 ANTENNA__036__I
*355 ANTENNA__037__I
*356 ANTENNA__038__I
*357 ANTENNA__039__I
*358 ANTENNA__040__I
*359 ANTENNA__041__I
*360 ANTENNA__042__I
*361 ANTENNA__043__I
*362 ANTENNA__044__I
*363 ANTENNA__045__I
*364 ANTENNA__046__I
*365 ANTENNA__047__I
*366 ANTENNA__048__I
*367 ANTENNA__049__I
*368 ANTENNA__050__I
*369 ANTENNA__051__I
*370 ANTENNA__052__I
*371 ANTENNA__053__I
*372 ANTENNA__054__I
*373 ANTENNA__055__I
*374 ANTENNA__056__I
*375 ANTENNA__057__I
*376 ANTENNA__058__I
*377 ANTENNA__059__I
*378 ANTENNA__060__I
*379 ANTENNA__061__I
*380 ANTENNA__062__I
*381 ANTENNA__063__I
*382 ANTENNA__064__I
*383 ANTENNA__065__I
*384 ANTENNA__066__I
*385 ANTENNA__067__I
*386 ANTENNA__068__I
*387 ANTENNA__069__I
*388 ANTENNA__070__I
*389 ANTENNA__071__I
*390 ANTENNA__072__I
*391 ANTENNA__073__I
*392 ANTENNA__074__I
*393 ANTENNA__075__I
*394 ANTENNA__076__I
*395 ANTENNA__077__I
*396 ANTENNA__078__I
*397 ANTENNA__079__I
*398 ANTENNA__080__I
*399 ANTENNA__081__I
*400 ANTENNA__082__I
*401 ANTENNA__083__I
*402 ANTENNA__084__I
*403 ANTENNA__085__I
*404 ANTENNA__086__I
*405 ANTENNA__087__I
*406 ANTENNA__088__I
*407 ANTENNA__089__I
*408 ANTENNA__090__I
*409 ANTENNA__091__I
*410 ANTENNA__092__I
*411 ANTENNA__093__I
*412 ANTENNA__094__I
*413 ANTENNA__095__I
*414 ANTENNA__096__I
*415 ANTENNA__097__I
*416 ANTENNA__098__I
*417 ANTENNA__099__I
*418 ANTENNA__100__I
*419 ANTENNA__101__I
*420 ANTENNA__102__I
*421 ANTENNA__103__I
*422 ANTENNA__104__I
*423 FILLER_0_104
*424 FILLER_0_120
*425 FILLER_0_128
*426 FILLER_0_134
*427 FILLER_0_138
*428 FILLER_0_172
*429 FILLER_0_19
*430 FILLER_0_2
*431 FILLER_0_206
*432 FILLER_0_240
*433 FILLER_0_27
*434 FILLER_0_274
*435 FILLER_0_308
*436 FILLER_0_31
*437 FILLER_0_318
*438 FILLER_0_33
*439 FILLER_0_334
*440 FILLER_0_338
*441 FILLER_0_342
*442 FILLER_0_358
*443 FILLER_0_36
*444 FILLER_0_366
*445 FILLER_0_368
*446 FILLER_0_371
*447 FILLER_0_373
*448 FILLER_0_376
*449 FILLER_0_379
*450 FILLER_0_395
*451 FILLER_0_403
*452 FILLER_0_407
*453 FILLER_0_410
*454 FILLER_0_444
*455 FILLER_0_478
*456 FILLER_0_494
*457 FILLER_0_502
*458 FILLER_0_506
*459 FILLER_0_512
*460 FILLER_0_546
*461 FILLER_0_6
*462 FILLER_0_70
*463 FILLER_0_8
*464 FILLER_0_90
*465 FILLER_0_98
*466 FILLER_10_10
*467 FILLER_10_101
*468 FILLER_10_107
*469 FILLER_10_139
*470 FILLER_10_14
*471 FILLER_10_143
*472 FILLER_10_155
*473 FILLER_10_16
*474 FILLER_10_171
*475 FILLER_10_177
*476 FILLER_10_181
*477 FILLER_10_183
*478 FILLER_10_194
*479 FILLER_10_2
*480 FILLER_10_226
*481 FILLER_10_242
*482 FILLER_10_244
*483 FILLER_10_247
*484 FILLER_10_251
*485 FILLER_10_262
*486 FILLER_10_27
*487 FILLER_10_294
*488 FILLER_10_31
*489 FILLER_10_310
*490 FILLER_10_314
*491 FILLER_10_317
*492 FILLER_10_349
*493 FILLER_10_353
*494 FILLER_10_364
*495 FILLER_10_380
*496 FILLER_10_384
*497 FILLER_10_387
*498 FILLER_10_403
*499 FILLER_10_411
*500 FILLER_10_415
*501 FILLER_10_426
*502 FILLER_10_442
*503 FILLER_10_45
*504 FILLER_10_450
*505 FILLER_10_454
*506 FILLER_10_457
*507 FILLER_10_461
*508 FILLER_10_472
*509 FILLER_10_488
*510 FILLER_10_492
*511 FILLER_10_527
*512 FILLER_10_531
*513 FILLER_10_77
*514 FILLER_10_93
*515 FILLER_11_115
*516 FILLER_11_131
*517 FILLER_11_139
*518 FILLER_11_142
*519 FILLER_11_2
*520 FILLER_11_206
*521 FILLER_11_212
*522 FILLER_11_276
*523 FILLER_11_282
*524 FILLER_11_34
*525 FILLER_11_346
*526 FILLER_11_352
*527 FILLER_11_416
*528 FILLER_11_422
*529 FILLER_11_486
*530 FILLER_11_50
*531 FILLER_11_500
*532 FILLER_11_58
*533 FILLER_11_72
*534 FILLER_11_80
*535 FILLER_11_84
*536 FILLER_11_99
*537 FILLER_12_117
*538 FILLER_12_177
*539 FILLER_12_188
*540 FILLER_12_2
*541 FILLER_12_203
*542 FILLER_12_219
*543 FILLER_12_235
*544 FILLER_12_243
*545 FILLER_12_247
*546 FILLER_12_311
*547 FILLER_12_317
*548 FILLER_12_34
*549 FILLER_12_349
*550 FILLER_12_365
*551 FILLER_12_37
*552 FILLER_12_373
*553 FILLER_12_387
*554 FILLER_12_45
*555 FILLER_12_451
*556 FILLER_12_457
*557 FILLER_12_473
*558 FILLER_12_481
*559 FILLER_12_527
*560 FILLER_12_531
*561 FILLER_13_142
*562 FILLER_13_150
*563 FILLER_13_19
*564 FILLER_13_2
*565 FILLER_13_212
*566 FILLER_13_220
*567 FILLER_13_224
*568 FILLER_13_239
*569 FILLER_13_251
*570 FILLER_13_267
*571 FILLER_13_27
*572 FILLER_13_275
*573 FILLER_13_279
*574 FILLER_13_282
*575 FILLER_13_346
*576 FILLER_13_352
*577 FILLER_13_384
*578 FILLER_13_400
*579 FILLER_13_404
*580 FILLER_13_415
*581 FILLER_13_419
*582 FILLER_13_422
*583 FILLER_13_454
*584 FILLER_13_458
*585 FILLER_13_460
*586 FILLER_13_489
*587 FILLER_13_558
*588 FILLER_13_6
*589 FILLER_13_72
*590 FILLER_13_8
*591 FILLER_13_80
*592 FILLER_14_107
*593 FILLER_14_115
*594 FILLER_14_177
*595 FILLER_14_18
*596 FILLER_14_185
*597 FILLER_14_2
*598 FILLER_14_20
*599 FILLER_14_243
*600 FILLER_14_247
*601 FILLER_14_251
*602 FILLER_14_262
*603 FILLER_14_274
*604 FILLER_14_290
*605 FILLER_14_298
*606 FILLER_14_302
*607 FILLER_14_304
*608 FILLER_14_317
*609 FILLER_14_349
*610 FILLER_14_353
*611 FILLER_14_365
*612 FILLER_14_37
*613 FILLER_14_373
*614 FILLER_14_387
*615 FILLER_14_45
*616 FILLER_14_451
*617 FILLER_14_513
*618 FILLER_14_524
*619 FILLER_14_555
*620 FILLER_14_559
*621 FILLER_15_104
*622 FILLER_15_138
*623 FILLER_15_172
*624 FILLER_15_2
*625 FILLER_15_206
*626 FILLER_15_254
*627 FILLER_15_270
*628 FILLER_15_274
*629 FILLER_15_308
*630 FILLER_15_342
*631 FILLER_15_36
*632 FILLER_15_376
*633 FILLER_15_410
*634 FILLER_15_444
*635 FILLER_15_446
*636 FILLER_15_467
*637 FILLER_15_475
*638 FILLER_15_506
*639 FILLER_15_540
*640 FILLER_15_560
*641 FILLER_15_70
*642 FILLER_1_112
*643 FILLER_1_120
*644 FILLER_1_144
*645 FILLER_1_176
*646 FILLER_1_2
*647 FILLER_1_20
*648 FILLER_1_202
*649 FILLER_1_212
*650 FILLER_1_244
*651 FILLER_1_260
*652 FILLER_1_262
*653 FILLER_1_271
*654 FILLER_1_279
*655 FILLER_1_292
*656 FILLER_1_316
*657 FILLER_1_327
*658 FILLER_1_338
*659 FILLER_1_352
*660 FILLER_1_360
*661 FILLER_1_387
*662 FILLER_1_395
*663 FILLER_1_407
*664 FILLER_1_415
*665 FILLER_1_417
*666 FILLER_1_450
*667 FILLER_1_482
*668 FILLER_1_492
*669 FILLER_1_518
*670 FILLER_1_52
*671 FILLER_1_520
*672 FILLER_1_68
*673 FILLER_1_90
*674 FILLER_1_98
*675 FILLER_2_101
*676 FILLER_2_107
*677 FILLER_2_171
*678 FILLER_2_177
*679 FILLER_2_2
*680 FILLER_2_241
*681 FILLER_2_247
*682 FILLER_2_311
*683 FILLER_2_317
*684 FILLER_2_34
*685 FILLER_2_37
*686 FILLER_2_381
*687 FILLER_2_387
*688 FILLER_2_451
*689 FILLER_2_467
*690 FILLER_2_499
*691 FILLER_2_527
*692 FILLER_2_531
*693 FILLER_3_10
*694 FILLER_3_136
*695 FILLER_3_152
*696 FILLER_3_184
*697 FILLER_3_2
*698 FILLER_3_200
*699 FILLER_3_21
*700 FILLER_3_214
*701 FILLER_3_278
*702 FILLER_3_282
*703 FILLER_3_346
*704 FILLER_3_362
*705 FILLER_3_378
*706 FILLER_3_386
*707 FILLER_3_397
*708 FILLER_3_405
*709 FILLER_3_407
*710 FILLER_3_418
*711 FILLER_3_422
*712 FILLER_3_438
*713 FILLER_3_449
*714 FILLER_3_47
*715 FILLER_3_481
*716 FILLER_3_489
*717 FILLER_3_492
*718 FILLER_3_508
*719 FILLER_3_512
*720 FILLER_3_514
*721 FILLER_3_517
*722 FILLER_3_63
*723 FILLER_3_67
*724 FILLER_3_69
*725 FILLER_3_72
*726 FILLER_4_101
*727 FILLER_4_107
*728 FILLER_4_139
*729 FILLER_4_150
*730 FILLER_4_166
*731 FILLER_4_174
*732 FILLER_4_177
*733 FILLER_4_19
*734 FILLER_4_2
*735 FILLER_4_241
*736 FILLER_4_247
*737 FILLER_4_311
*738 FILLER_4_317
*739 FILLER_4_349
*740 FILLER_4_365
*741 FILLER_4_367
*742 FILLER_4_37
*743 FILLER_4_378
*744 FILLER_4_382
*745 FILLER_4_384
*746 FILLER_4_387
*747 FILLER_4_419
*748 FILLER_4_423
*749 FILLER_4_425
*750 FILLER_4_436
*751 FILLER_4_452
*752 FILLER_4_454
*753 FILLER_4_457
*754 FILLER_4_499
*755 FILLER_4_515
*756 FILLER_4_523
*757 FILLER_4_527
*758 FILLER_4_531
*759 FILLER_4_6
*760 FILLER_4_8
*761 FILLER_5_136
*762 FILLER_5_152
*763 FILLER_5_170
*764 FILLER_5_178
*765 FILLER_5_182
*766 FILLER_5_193
*767 FILLER_5_2
*768 FILLER_5_20
*769 FILLER_5_209
*770 FILLER_5_222
*771 FILLER_5_238
*772 FILLER_5_246
*773 FILLER_5_250
*774 FILLER_5_262
*775 FILLER_5_278
*776 FILLER_5_282
*777 FILLER_5_346
*778 FILLER_5_352
*779 FILLER_5_361
*780 FILLER_5_365
*781 FILLER_5_384
*782 FILLER_5_416
*783 FILLER_5_422
*784 FILLER_5_438
*785 FILLER_5_450
*786 FILLER_5_482
*787 FILLER_5_492
*788 FILLER_5_496
*789 FILLER_5_517
*790 FILLER_5_52
*791 FILLER_5_68
*792 FILLER_5_72
*793 FILLER_6_103
*794 FILLER_6_107
*795 FILLER_6_171
*796 FILLER_6_177
*797 FILLER_6_2
*798 FILLER_6_20
*799 FILLER_6_209
*800 FILLER_6_225
*801 FILLER_6_229
*802 FILLER_6_240
*803 FILLER_6_244
*804 FILLER_6_247
*805 FILLER_6_255
*806 FILLER_6_267
*807 FILLER_6_28
*808 FILLER_6_299
*809 FILLER_6_317
*810 FILLER_6_32
*811 FILLER_6_34
*812 FILLER_6_349
*813 FILLER_6_365
*814 FILLER_6_37
*815 FILLER_6_373
*816 FILLER_6_376
*817 FILLER_6_380
*818 FILLER_6_382
*819 FILLER_6_395
*820 FILLER_6_427
*821 FILLER_6_443
*822 FILLER_6_451
*823 FILLER_6_457
*824 FILLER_6_489
*825 FILLER_6_497
*826 FILLER_6_501
*827 FILLER_6_513
*828 FILLER_6_527
*829 FILLER_6_53
*830 FILLER_6_531
*831 FILLER_6_61
*832 FILLER_6_75
*833 FILLER_6_91
*834 FILLER_6_99
*835 FILLER_7_136
*836 FILLER_7_142
*837 FILLER_7_146
*838 FILLER_7_148
*839 FILLER_7_159
*840 FILLER_7_191
*841 FILLER_7_2
*842 FILLER_7_207
*843 FILLER_7_209
*844 FILLER_7_212
*845 FILLER_7_244
*846 FILLER_7_260
*847 FILLER_7_272
*848 FILLER_7_282
*849 FILLER_7_314
*850 FILLER_7_316
*851 FILLER_7_327
*852 FILLER_7_343
*853 FILLER_7_347
*854 FILLER_7_349
*855 FILLER_7_352
*856 FILLER_7_384
*857 FILLER_7_400
*858 FILLER_7_408
*859 FILLER_7_422
*860 FILLER_7_438
*861 FILLER_7_440
*862 FILLER_7_451
*863 FILLER_7_483
*864 FILLER_7_487
*865 FILLER_7_489
*866 FILLER_7_492
*867 FILLER_7_508
*868 FILLER_7_66
*869 FILLER_7_72
*870 FILLER_8_101
*871 FILLER_8_107
*872 FILLER_8_123
*873 FILLER_8_134
*874 FILLER_8_166
*875 FILLER_8_174
*876 FILLER_8_177
*877 FILLER_8_2
*878 FILLER_8_241
*879 FILLER_8_247
*880 FILLER_8_279
*881 FILLER_8_295
*882 FILLER_8_299
*883 FILLER_8_301
*884 FILLER_8_312
*885 FILLER_8_314
*886 FILLER_8_317
*887 FILLER_8_34
*888 FILLER_8_349
*889 FILLER_8_37
*890 FILLER_8_375
*891 FILLER_8_383
*892 FILLER_8_387
*893 FILLER_8_451
*894 FILLER_8_457
*895 FILLER_8_489
*896 FILLER_8_497
*897 FILLER_8_501
*898 FILLER_8_527
*899 FILLER_8_531
*900 FILLER_9_100
*901 FILLER_9_112
*902 FILLER_9_128
*903 FILLER_9_136
*904 FILLER_9_142
*905 FILLER_9_18
*906 FILLER_9_2
*907 FILLER_9_206
*908 FILLER_9_212
*909 FILLER_9_26
*910 FILLER_9_276
*911 FILLER_9_282
*912 FILLER_9_30
*913 FILLER_9_32
*914 FILLER_9_346
*915 FILLER_9_352
*916 FILLER_9_368
*917 FILLER_9_376
*918 FILLER_9_390
*919 FILLER_9_406
*920 FILLER_9_414
*921 FILLER_9_418
*922 FILLER_9_422
*923 FILLER_9_43
*924 FILLER_9_486
*925 FILLER_9_500
*926 FILLER_9_59
*927 FILLER_9_67
*928 FILLER_9_69
*929 FILLER_9_72
*930 FILLER_9_88
*931 FILLER_9_96
*932 PHY_EDGE_ROW_0_Left_16
*933 PHY_EDGE_ROW_0_Right_0
*934 PHY_EDGE_ROW_10_Left_26
*935 PHY_EDGE_ROW_10_Right_10
*936 PHY_EDGE_ROW_11_Left_27
*937 PHY_EDGE_ROW_11_Right_11
*938 PHY_EDGE_ROW_12_Left_28
*939 PHY_EDGE_ROW_12_Right_12
*940 PHY_EDGE_ROW_13_Left_29
*941 PHY_EDGE_ROW_13_Right_13
*942 PHY_EDGE_ROW_14_Left_30
*943 PHY_EDGE_ROW_14_Right_14
*944 PHY_EDGE_ROW_15_Left_31
*945 PHY_EDGE_ROW_15_Right_15
*946 PHY_EDGE_ROW_1_Left_17
*947 PHY_EDGE_ROW_1_Right_1
*948 PHY_EDGE_ROW_2_Left_18
*949 PHY_EDGE_ROW_2_Right_2
*950 PHY_EDGE_ROW_3_Left_19
*951 PHY_EDGE_ROW_3_Right_3
*952 PHY_EDGE_ROW_4_Left_20
*953 PHY_EDGE_ROW_4_Right_4
*954 PHY_EDGE_ROW_5_Left_21
*955 PHY_EDGE_ROW_5_Right_5
*956 PHY_EDGE_ROW_6_Left_22
*957 PHY_EDGE_ROW_6_Right_6
*958 PHY_EDGE_ROW_7_Left_23
*959 PHY_EDGE_ROW_7_Right_7
*960 PHY_EDGE_ROW_8_Left_24
*961 PHY_EDGE_ROW_8_Right_8
*962 PHY_EDGE_ROW_9_Left_25
*963 PHY_EDGE_ROW_9_Right_9
*964 TAP_TAPCELL_ROW_0_32
*965 TAP_TAPCELL_ROW_0_33
*966 TAP_TAPCELL_ROW_0_34
*967 TAP_TAPCELL_ROW_0_35
*968 TAP_TAPCELL_ROW_0_36
*969 TAP_TAPCELL_ROW_0_37
*970 TAP_TAPCELL_ROW_0_38
*971 TAP_TAPCELL_ROW_0_39
*972 TAP_TAPCELL_ROW_0_40
*973 TAP_TAPCELL_ROW_0_41
*974 TAP_TAPCELL_ROW_0_42
*975 TAP_TAPCELL_ROW_0_43
*976 TAP_TAPCELL_ROW_0_44
*977 TAP_TAPCELL_ROW_0_45
*978 TAP_TAPCELL_ROW_0_46
*979 TAP_TAPCELL_ROW_0_47
*980 TAP_TAPCELL_ROW_10_120
*981 TAP_TAPCELL_ROW_10_121
*982 TAP_TAPCELL_ROW_10_122
*983 TAP_TAPCELL_ROW_10_123
*984 TAP_TAPCELL_ROW_10_124
*985 TAP_TAPCELL_ROW_10_125
*986 TAP_TAPCELL_ROW_10_126
*987 TAP_TAPCELL_ROW_10_127
*988 TAP_TAPCELL_ROW_11_128
*989 TAP_TAPCELL_ROW_11_129
*990 TAP_TAPCELL_ROW_11_130
*991 TAP_TAPCELL_ROW_11_131
*992 TAP_TAPCELL_ROW_11_132
*993 TAP_TAPCELL_ROW_11_133
*994 TAP_TAPCELL_ROW_11_134
*995 TAP_TAPCELL_ROW_11_135
*996 TAP_TAPCELL_ROW_12_136
*997 TAP_TAPCELL_ROW_12_137
*998 TAP_TAPCELL_ROW_12_138
*999 TAP_TAPCELL_ROW_12_139
*1000 TAP_TAPCELL_ROW_12_140
*1001 TAP_TAPCELL_ROW_12_141
*1002 TAP_TAPCELL_ROW_12_142
*1003 TAP_TAPCELL_ROW_12_143
*1004 TAP_TAPCELL_ROW_13_144
*1005 TAP_TAPCELL_ROW_13_145
*1006 TAP_TAPCELL_ROW_13_146
*1007 TAP_TAPCELL_ROW_13_147
*1008 TAP_TAPCELL_ROW_13_148
*1009 TAP_TAPCELL_ROW_13_149
*1010 TAP_TAPCELL_ROW_13_150
*1011 TAP_TAPCELL_ROW_13_151
*1012 TAP_TAPCELL_ROW_14_152
*1013 TAP_TAPCELL_ROW_14_153
*1014 TAP_TAPCELL_ROW_14_154
*1015 TAP_TAPCELL_ROW_14_155
*1016 TAP_TAPCELL_ROW_14_156
*1017 TAP_TAPCELL_ROW_14_157
*1018 TAP_TAPCELL_ROW_14_158
*1019 TAP_TAPCELL_ROW_14_159
*1020 TAP_TAPCELL_ROW_15_160
*1021 TAP_TAPCELL_ROW_15_161
*1022 TAP_TAPCELL_ROW_15_162
*1023 TAP_TAPCELL_ROW_15_163
*1024 TAP_TAPCELL_ROW_15_164
*1025 TAP_TAPCELL_ROW_15_165
*1026 TAP_TAPCELL_ROW_15_166
*1027 TAP_TAPCELL_ROW_15_167
*1028 TAP_TAPCELL_ROW_15_168
*1029 TAP_TAPCELL_ROW_15_169
*1030 TAP_TAPCELL_ROW_15_170
*1031 TAP_TAPCELL_ROW_15_171
*1032 TAP_TAPCELL_ROW_15_172
*1033 TAP_TAPCELL_ROW_15_173
*1034 TAP_TAPCELL_ROW_15_174
*1035 TAP_TAPCELL_ROW_15_175
*1036 TAP_TAPCELL_ROW_1_48
*1037 TAP_TAPCELL_ROW_1_49
*1038 TAP_TAPCELL_ROW_1_50
*1039 TAP_TAPCELL_ROW_1_51
*1040 TAP_TAPCELL_ROW_1_52
*1041 TAP_TAPCELL_ROW_1_53
*1042 TAP_TAPCELL_ROW_1_54
*1043 TAP_TAPCELL_ROW_1_55
*1044 TAP_TAPCELL_ROW_2_56
*1045 TAP_TAPCELL_ROW_2_57
*1046 TAP_TAPCELL_ROW_2_58
*1047 TAP_TAPCELL_ROW_2_59
*1048 TAP_TAPCELL_ROW_2_60
*1049 TAP_TAPCELL_ROW_2_61
*1050 TAP_TAPCELL_ROW_2_62
*1051 TAP_TAPCELL_ROW_2_63
*1052 TAP_TAPCELL_ROW_3_64
*1053 TAP_TAPCELL_ROW_3_65
*1054 TAP_TAPCELL_ROW_3_66
*1055 TAP_TAPCELL_ROW_3_67
*1056 TAP_TAPCELL_ROW_3_68
*1057 TAP_TAPCELL_ROW_3_69
*1058 TAP_TAPCELL_ROW_3_70
*1059 TAP_TAPCELL_ROW_3_71
*1060 TAP_TAPCELL_ROW_4_72
*1061 TAP_TAPCELL_ROW_4_73
*1062 TAP_TAPCELL_ROW_4_74
*1063 TAP_TAPCELL_ROW_4_75
*1064 TAP_TAPCELL_ROW_4_76
*1065 TAP_TAPCELL_ROW_4_77
*1066 TAP_TAPCELL_ROW_4_78
*1067 TAP_TAPCELL_ROW_4_79
*1068 TAP_TAPCELL_ROW_5_80
*1069 TAP_TAPCELL_ROW_5_81
*1070 TAP_TAPCELL_ROW_5_82
*1071 TAP_TAPCELL_ROW_5_83
*1072 TAP_TAPCELL_ROW_5_84
*1073 TAP_TAPCELL_ROW_5_85
*1074 TAP_TAPCELL_ROW_5_86
*1075 TAP_TAPCELL_ROW_5_87
*1076 TAP_TAPCELL_ROW_6_88
*1077 TAP_TAPCELL_ROW_6_89
*1078 TAP_TAPCELL_ROW_6_90
*1079 TAP_TAPCELL_ROW_6_91
*1080 TAP_TAPCELL_ROW_6_92
*1081 TAP_TAPCELL_ROW_6_93
*1082 TAP_TAPCELL_ROW_6_94
*1083 TAP_TAPCELL_ROW_6_95
*1084 TAP_TAPCELL_ROW_7_100
*1085 TAP_TAPCELL_ROW_7_101
*1086 TAP_TAPCELL_ROW_7_102
*1087 TAP_TAPCELL_ROW_7_103
*1088 TAP_TAPCELL_ROW_7_96
*1089 TAP_TAPCELL_ROW_7_97
*1090 TAP_TAPCELL_ROW_7_98
*1091 TAP_TAPCELL_ROW_7_99
*1092 TAP_TAPCELL_ROW_8_104
*1093 TAP_TAPCELL_ROW_8_105
*1094 TAP_TAPCELL_ROW_8_106
*1095 TAP_TAPCELL_ROW_8_107
*1096 TAP_TAPCELL_ROW_8_108
*1097 TAP_TAPCELL_ROW_8_109
*1098 TAP_TAPCELL_ROW_8_110
*1099 TAP_TAPCELL_ROW_8_111
*1100 TAP_TAPCELL_ROW_9_112
*1101 TAP_TAPCELL_ROW_9_113
*1102 TAP_TAPCELL_ROW_9_114
*1103 TAP_TAPCELL_ROW_9_115
*1104 TAP_TAPCELL_ROW_9_116
*1105 TAP_TAPCELL_ROW_9_117
*1106 TAP_TAPCELL_ROW_9_118
*1107 TAP_TAPCELL_ROW_9_119
*1108 _000_
*1109 _001_
*1110 _002_
*1111 _003_
*1112 _004_
*1113 _005_
*1114 _006_
*1115 _007_
*1116 _008_
*1117 _009_
*1118 _010_
*1119 _011_
*1120 _012_
*1121 _013_
*1122 _014_
*1123 _015_
*1124 _016_
*1125 _017_
*1126 _018_
*1127 _019_
*1128 _020_
*1129 _021_
*1130 _022_
*1131 _023_
*1132 _024_
*1133 _025_
*1134 _026_
*1135 _027_
*1136 _028_
*1137 _029_
*1138 _030_
*1139 _031_
*1140 _032_
*1141 _033_
*1142 _034_
*1143 _035_
*1144 _036_
*1145 _037_
*1146 _038_
*1147 _039_
*1148 _040_
*1149 _041_
*1150 _042_
*1151 _043_
*1152 _044_
*1153 _045_
*1154 _046_
*1155 _047_
*1156 _048_
*1157 _049_
*1158 _050_
*1159 _051_
*1160 _052_
*1161 _053_
*1162 _054_
*1163 _055_
*1164 _056_
*1165 _057_
*1166 _058_
*1167 _059_
*1168 _060_
*1169 _061_
*1170 _062_
*1171 _063_
*1172 _064_
*1173 _065_
*1174 _066_
*1175 _067_
*1176 _068_
*1177 _069_
*1178 _070_
*1179 _071_
*1180 _072_
*1181 _073_
*1182 _074_
*1183 _075_
*1184 _076_
*1185 _077_
*1186 _078_
*1187 _079_
*1188 _080_
*1189 _081_
*1190 _082_
*1191 _083_
*1192 _084_
*1193 _085_
*1194 _086_
*1195 _087_
*1196 _088_
*1197 _089_
*1198 _090_
*1199 _091_
*1200 _092_
*1201 _093_
*1202 _094_
*1203 _095_
*1204 _096_
*1205 _097_
*1206 _098_
*1207 _099_
*1208 _100_
*1209 _101_
*1210 _102_
*1211 _103_
*1212 _104_
*1213 output1
*1214 output10
*1215 output100
*1216 output101
*1217 output102
*1218 output103
*1219 output104
*1220 output105
*1221 output11
*1222 output12
*1223 output13
*1224 output14
*1225 output15
*1226 output16
*1227 output17
*1228 output18
*1229 output19
*1230 output2
*1231 output20
*1232 output21
*1233 output22
*1234 output23
*1235 output24
*1236 output25
*1237 output26
*1238 output27
*1239 output28
*1240 output29
*1241 output3
*1242 output30
*1243 output31
*1244 output32
*1245 output33
*1246 output34
*1247 output35
*1248 output36
*1249 output37
*1250 output38
*1251 output39
*1252 output4
*1253 output40
*1254 output41
*1255 output42
*1256 output43
*1257 output44
*1258 output45
*1259 output46
*1260 output47
*1261 output48
*1262 output49
*1263 output5
*1264 output50
*1265 output51
*1266 output52
*1267 output53
*1268 output54
*1269 output55
*1270 output56
*1271 output57
*1272 output58
*1273 output59
*1274 output6
*1275 output60
*1276 output61
*1277 output62
*1278 output63
*1279 output64
*1280 output65
*1281 output66
*1282 output67
*1283 output68
*1284 output69
*1285 output7
*1286 output70
*1287 output71
*1288 output72
*1289 output73
*1290 output74
*1291 output75
*1292 output76
*1293 output77
*1294 output78
*1295 output79
*1296 output8
*1297 output80
*1298 output81
*1299 output82
*1300 output83
*1301 output84
*1302 output85
*1303 output86
*1304 output87
*1305 output88
*1306 output89
*1307 output9
*1308 output90
*1309 output91
*1310 output92
*1311 output93
*1312 output94
*1313 output95
*1314 output96
*1315 output97
*1316 output98
*1317 output99

*PORTS
FrameData[0] I
FrameData[10] I
FrameData[11] I
FrameData[12] I
FrameData[13] I
FrameData[14] I
FrameData[15] I
FrameData[16] I
FrameData[17] I
FrameData[18] I
FrameData[19] I
FrameData[1] I
FrameData[20] I
FrameData[21] I
FrameData[22] I
FrameData[23] I
FrameData[24] I
FrameData[25] I
FrameData[26] I
FrameData[27] I
FrameData[28] I
FrameData[29] I
FrameData[2] I
FrameData[30] I
FrameData[31] I
FrameData[3] I
FrameData[4] I
FrameData[5] I
FrameData[6] I
FrameData[7] I
FrameData[8] I
FrameData[9] I
FrameData_O[0] O
FrameData_O[10] O
FrameData_O[11] O
FrameData_O[12] O
FrameData_O[13] O
FrameData_O[14] O
FrameData_O[15] O
FrameData_O[16] O
FrameData_O[17] O
FrameData_O[18] O
FrameData_O[19] O
FrameData_O[1] O
FrameData_O[20] O
FrameData_O[21] O
FrameData_O[22] O
FrameData_O[23] O
FrameData_O[24] O
FrameData_O[25] O
FrameData_O[26] O
FrameData_O[27] O
FrameData_O[28] O
FrameData_O[29] O
FrameData_O[2] O
FrameData_O[30] O
FrameData_O[31] O
FrameData_O[3] O
FrameData_O[4] O
FrameData_O[5] O
FrameData_O[6] O
FrameData_O[7] O
FrameData_O[8] O
FrameData_O[9] O
FrameStrobe[0] I
FrameStrobe[10] I
FrameStrobe[11] I
FrameStrobe[12] I
FrameStrobe[13] I
FrameStrobe[14] I
FrameStrobe[15] I
FrameStrobe[16] I
FrameStrobe[17] I
FrameStrobe[18] I
FrameStrobe[19] I
FrameStrobe[1] I
FrameStrobe[2] I
FrameStrobe[3] I
FrameStrobe[4] I
FrameStrobe[5] I
FrameStrobe[6] I
FrameStrobe[7] I
FrameStrobe[8] I
FrameStrobe[9] I
FrameStrobe_O[0] O
FrameStrobe_O[10] O
FrameStrobe_O[11] O
FrameStrobe_O[12] O
FrameStrobe_O[13] O
FrameStrobe_O[14] O
FrameStrobe_O[15] O
FrameStrobe_O[16] O
FrameStrobe_O[17] O
FrameStrobe_O[18] O
FrameStrobe_O[19] O
FrameStrobe_O[1] O
FrameStrobe_O[2] O
FrameStrobe_O[3] O
FrameStrobe_O[4] O
FrameStrobe_O[5] O
FrameStrobe_O[6] O
FrameStrobe_O[7] O
FrameStrobe_O[8] O
FrameStrobe_O[9] O
N1BEG[0] O
N1BEG[1] O
N1BEG[2] O
N1BEG[3] O
N2BEG[0] O
N2BEG[1] O
N2BEG[2] O
N2BEG[3] O
N2BEG[4] O
N2BEG[5] O
N2BEG[6] O
N2BEG[7] O
N2BEGb[0] O
N2BEGb[1] O
N2BEGb[2] O
N2BEGb[3] O
N2BEGb[4] O
N2BEGb[5] O
N2BEGb[6] O
N2BEGb[7] O
N4BEG[0] O
N4BEG[10] O
N4BEG[11] O
N4BEG[12] O
N4BEG[13] O
N4BEG[14] O
N4BEG[15] O
N4BEG[1] O
N4BEG[2] O
N4BEG[3] O
N4BEG[4] O
N4BEG[5] O
N4BEG[6] O
N4BEG[7] O
N4BEG[8] O
N4BEG[9] O
NN4BEG[0] O
NN4BEG[10] O
NN4BEG[11] O
NN4BEG[12] O
NN4BEG[13] O
NN4BEG[14] O
NN4BEG[15] O
NN4BEG[1] O
NN4BEG[2] O
NN4BEG[3] O
NN4BEG[4] O
NN4BEG[5] O
NN4BEG[6] O
NN4BEG[7] O
NN4BEG[8] O
NN4BEG[9] O
S1END[0] I
S1END[1] I
S1END[2] I
S1END[3] I
S2END[0] I
S2END[1] I
S2END[2] I
S2END[3] I
S2END[4] I
S2END[5] I
S2END[6] I
S2END[7] I
S2MID[0] I
S2MID[1] I
S2MID[2] I
S2MID[3] I
S2MID[4] I
S2MID[5] I
S2MID[6] I
S2MID[7] I
S4END[0] I
S4END[10] I
S4END[11] I
S4END[12] I
S4END[13] I
S4END[14] I
S4END[15] I
S4END[1] I
S4END[2] I
S4END[3] I
S4END[4] I
S4END[5] I
S4END[6] I
S4END[7] I
S4END[8] I
S4END[9] I
SS4END[0] I
SS4END[10] I
SS4END[11] I
SS4END[12] I
SS4END[13] I
SS4END[14] I
SS4END[15] I
SS4END[1] I
SS4END[2] I
SS4END[3] I
SS4END[4] I
SS4END[5] I
SS4END[6] I
SS4END[7] I
SS4END[8] I
SS4END[9] I
UserCLK I
UserCLKo O

*D_NET *1 0.0062943
*CONN
*P FrameData[0] I
*I *1108:I I *D gf180mcu_fd_sc_mcu7t5v0__buf_2
*I *318:I I *D gf180mcu_fd_sc_mcu7t5v0__antenna
*CAP
1 FrameData[0] 0.00151492
2 *1108:I 5.87115e-05
3 *318:I 0
4 *1:9 0.00157364
5 *1108:I *319:I 3.01487e-05
6 *1108:I *23:31 0.000135676
7 *1108:I *192:25 0.000299714
8 *1108:I *238:10 2.08301e-05
9 *1:9 *319:I 0.000276883
10 *1:9 *12:5 0.000789751
11 *1:9 *65:21 0.00156464
12 *1:9 *76:15 0
13 *1:9 *238:10 2.93836e-05
*RES
1 FrameData[0] *1:9 21.375 
2 *1:9 *318:I 4.5 
3 *1:9 *1108:I 14.58 
*END

*D_NET *2 0.075063
*CONN
*P FrameData[10] I
*I *1118:I I *D gf180mcu_fd_sc_mcu7t5v0__buf_2
*I *328:I I *D gf180mcu_fd_sc_mcu7t5v0__antenna
*CAP
1 FrameData[10] 0.00125136
2 *1118:I 4.88753e-05
3 *328:I 0
4 *2:69 0.000149628
5 *2:67 0.0020237
6 *2:51 0.0029307
7 *2:35 0.0037305
8 *2:15 0.00397411
9 *1118:I *3:53 8.16511e-05
10 *1118:I *9:61 6.02234e-05
11 *2:15 *3:15 0.001128
12 *2:15 *4:19 0.00444472
13 *2:15 *17:35 0.000416198
14 *2:15 *23:31 0.000642725
15 *2:15 *30:19 0.00315966
16 *2:15 *32:13 0.000782666
17 *2:15 *173:45 0.000737221
18 *2:15 *180:53 0.00101855
19 *2:15 *209:23 0.000145014
20 *2:15 *244:34 0.00233016
21 *2:15 *269:18 2.16833e-05
22 *2:15 *276:16 0.00212532
23 *2:35 *1216:I 0.000566161
24 *2:35 *1219:I 0.000518471
25 *2:35 *1292:I 0.000201112
26 *2:35 *1309:I 7.78163e-05
27 *2:35 *3:15 0.000199701
28 *2:35 *3:31 0
29 *2:35 *4:39 0.00220385
30 *2:35 *7:13 0.000175223
31 *2:35 *11:31 2.18762e-06
32 *2:35 *13:41 2.63255e-05
33 *2:35 *19:39 8.85379e-05
34 *2:35 *157:25 3.4106e-05
35 *2:35 *176:13 1.66941e-06
36 *2:35 *190:19 1.94121e-05
37 *2:35 *190:21 0.000737027
38 *2:35 *209:35 8.82204e-05
39 *2:35 *213:36 0.000558116
40 *2:35 *228:8 0.00285505
41 *2:35 *270:24 5.39515e-05
42 *2:35 *279:20 6.49851e-06
43 *2:35 *282:34 0.000108789
44 *2:35 *288:38 0.000872504
45 *2:51 *15:51 0.0011133
46 *2:51 *21:51 0.000752156
47 *2:51 *26:31 0.000302666
48 *2:51 *28:25 0.00108272
49 *2:51 *29:23 1.50701e-05
50 *2:51 *31:31 0.000217587
51 *2:51 *68:13 1.44713e-05
52 *2:51 *70:33 0.00238708
53 *2:51 *79:25 0.00275982
54 *2:51 *80:35 1.36965e-05
55 *2:51 *178:47 0.0008099
56 *2:51 *202:25 0.00149128
57 *2:51 *244:34 0.000753006
58 *2:51 *286:54 0.000110823
59 *2:51 *288:20 0.00241497
60 *2:51 *296:24 0.00390268
61 *2:67 *1222:I 0.00018113
62 *2:67 *4:81 0.000102753
63 *2:67 *11:65 2.23408e-05
64 *2:67 *15:51 0.000233161
65 *2:67 *23:77 5.96459e-05
66 *2:67 *26:69 4.79765e-05
67 *2:67 *26:75 0.00430867
68 *2:67 *28:25 0.00315158
69 *2:67 *31:79 5.2835e-05
70 *2:67 *70:33 0.000783873
71 *2:67 *72:25 0.00255077
72 *2:67 *73:21 5.44009e-05
73 *2:67 *213:66 0.00133133
74 *2:69 *1248:I 0.00104909
75 *2:69 *1262:I 0.00162444
76 *2:69 *3:53 0.000355668