*SPEF "ieee 1481-1999"
*DESIGN "N_term_single2"
*DATE "22:39:53 Friday December 05, 2025"
*VENDOR "The OpenROAD Project"
*PROGRAM "OpenROAD"
*VERSION "341650e72dad0dc8571822ff8c5d9c5e365327f7"
*DESIGN_FLOW "NAME_SCOPE LOCAL" "PIN_CAP NONE"
*DIVIDER /
*DELIMITER :
*BUS_DELIMITER []
*T_UNIT 1 NS
*C_UNIT 1 PF
*R_UNIT 1 OHM
*L_UNIT 1 HENRY

*NAME_MAP
*1 FrameData[0]
*2 FrameData[10]
*3 FrameData[11]
*4 FrameData[12]
*5 FrameData[13]
*6 FrameData[14]
*7 FrameData[15]
*8 FrameData[16]
*9 FrameData[17]
*10 FrameData[18]
*11 FrameData[19]
*12 FrameData[1]
*13 FrameData[20]
*14 FrameData[21]
*15 FrameData[22]
*16 FrameData[23]
*17 FrameData[24]
*18 FrameData[25]
*19 FrameData[26]
*20 FrameData[27]
*21 FrameData[28]
*22 FrameData[29]
*23 FrameData[2]
*24 FrameData[30]
*25 FrameData[31]
*26 FrameData[3]
*27 FrameData[4]
*28 FrameData[5]
*29 FrameData[6]
*30 FrameData[7]
*31 FrameData[8]
*32 FrameData[9]
*33 FrameData_O[0]
*34 FrameData_O[10]
*35 FrameData_O[11]
*36 FrameData_O[12]
*37 FrameData_O[13]
*38 FrameData_O[14]
*39 FrameData_O[15]
*40 FrameData_O[16]
*41 FrameData_O[17]
*42 FrameData_O[18]
*43 FrameData_O[19]
*44 FrameData_O[1]
*45 FrameData_O[20]
*46 FrameData_O[21]
*47 FrameData_O[22]
*48 FrameData_O[23]
*49 FrameData_O[24]
*50 FrameData_O[25]
*51 FrameData_O[26]
*52 FrameData_O[27]
*53 FrameData_O[28]
*54 FrameData_O[29]
*55 FrameData_O[2]
*56 FrameData_O[30]
*57 FrameData_O[31]
*58 FrameData_O[3]
*59 FrameData_O[4]
*60 FrameData_O[5]
*61 FrameData_O[6]
*62 FrameData_O[7]
*63 FrameData_O[8]
*64 FrameData_O[9]
*65 FrameStrobe[0]
*66 FrameStrobe[10]
*67 FrameStrobe[11]
*68 FrameStrobe[12]
*69 FrameStrobe[13]
*70 FrameStrobe[14]
*71 FrameStrobe[15]
*72 FrameStrobe[16]
*73 FrameStrobe[17]
*74 FrameStrobe[18]
*75 FrameStrobe[19]
*76 FrameStrobe[1]
*77 FrameStrobe[2]
*78 FrameStrobe[3]
*79 FrameStrobe[4]
*80 FrameStrobe[5]
*81 FrameStrobe[6]
*82 FrameStrobe[7]
*83 FrameStrobe[8]
*84 FrameStrobe[9]
*85 FrameStrobe_O[0]
*86 FrameStrobe_O[10]
*87 FrameStrobe_O[11]
*88 FrameStrobe_O[12]
*89 FrameStrobe_O[13]
*90 FrameStrobe_O[14]
*91 FrameStrobe_O[15]
*92 FrameStrobe_O[16]
*93 FrameStrobe_O[17]
*94 FrameStrobe_O[18]
*95 FrameStrobe_O[19]
*96 FrameStrobe_O[1]
*97 FrameStrobe_O[2]
*98 FrameStrobe_O[3]
*99 FrameStrobe_O[4]
*100 FrameStrobe_O[5]
*101 FrameStrobe_O[6]
*102 FrameStrobe_O[7]
*103 FrameStrobe_O[8]
*104 FrameStrobe_O[9]
*105 N1END[0]
*106 N1END[1]
*107 N1END[2]
*108 N1END[3]
*109 N2END[0]
*110 N2END[1]
*111 N2END[2]
*112 N2END[3]
*113 N2END[4]
*114 N2END[5]
*115 N2END[6]
*116 N2END[7]
*117 N2MID[0]
*118 N2MID[1]
*119 N2MID[2]
*120 N2MID[3]
*121 N2MID[4]
*122 N2MID[5]
*123 N2MID[6]
*124 N2MID[7]
*125 N4END[0]
*126 N4END[10]
*127 N4END[11]
*128 N4END[12]
*129 N4END[13]
*130 N4END[14]
*131 N4END[15]
*132 N4END[1]
*133 N4END[2]
*134 N4END[3]
*135 N4END[4]
*136 N4END[5]
*137 N4END[6]
*138 N4END[7]
*139 N4END[8]
*140 N4END[9]
*141 NN4END[0]
*142 NN4END[10]
*143 NN4END[11]
*144 NN4END[12]
*145 NN4END[13]
*146 NN4END[14]
*147 NN4END[15]
*148 NN4END[1]
*149 NN4END[2]
*150 NN4END[3]
*151 NN4END[4]
*152 NN4END[5]
*153 NN4END[6]
*154 NN4END[7]
*155 NN4END[8]
*156 NN4END[9]
*157 S1BEG[0]
*158 S1BEG[1]
*159 S1BEG[2]
*160 S1BEG[3]
*161 S2BEG[0]
*162 S2BEG[1]
*163 S2BEG[2]
*164 S2BEG[3]
*165 S2BEG[4]
*166 S2BEG[5]
*167 S2BEG[6]
*168 S2BEG[7]
*169 S2BEGb[0]
*170 S2BEGb[1]
*171 S2BEGb[2]
*172 S2BEGb[3]
*173 S2BEGb[4]
*174 S2BEGb[5]
*175 S2BEGb[6]
*176 S2BEGb[7]
*177 S4BEG[0]
*178 S4BEG[10]
*179 S4BEG[11]
*180 S4BEG[12]
*181 S4BEG[13]
*182 S4BEG[14]
*183 S4BEG[15]
*184 S4BEG[1]
*185 S4BEG[2]
*186 S4BEG[3]
*187 S4BEG[4]
*188 S4BEG[5]
*189 S4BEG[6]
*190 S4BEG[7]
*191 S4BEG[8]
*192 S4BEG[9]
*193 SS4BEG[0]
*194 SS4BEG[10]
*195 SS4BEG[11]
*196 SS4BEG[12]
*197 SS4BEG[13]
*198 SS4BEG[14]
*199 SS4BEG[15]
*200 SS4BEG[1]
*201 SS4BEG[2]
*202 SS4BEG[3]
*203 SS4BEG[4]
*204 SS4BEG[5]
*205 SS4BEG[6]
*206 SS4BEG[7]
*207 SS4BEG[8]
*208 SS4BEG[9]
*209 UserCLK
*210 UserCLKo
*213 net1
*214 net10
*215 net100
*216 net101
*217 net102
*218 net103
*219 net104
*220 net105
*221 net11
*222 net12
*223 net13
*224 net14
*225 net15
*226 net16
*227 net17
*228 net18
*229 net19
*230 net2
*231 net20
*232 net21
*233 net22
*234 net23
*235 net24
*236 net25
*237 net26
*238 net27
*239 net28
*240 net29
*241 net3
*242 net30
*243 net31
*244 net32
*245 net33
*246 net34
*247 net35
*248 net36
*249 net37
*250 net38
*251 net39
*252 net4
*253 net40
*254 net41
*255 net42
*256 net43
*257 net44
*258 net45
*259 net46
*260 net47
*261 net48
*262 net49
*263 net5
*264 net50
*265 net51
*266 net52
*267 net53
*268 net54
*269 net55
*270 net56
*271 net57
*272 net58
*273 net59
*274 net6
*275 net60
*276 net61
*277 net62
*278 net63
*279 net64
*280 net65
*281 net66
*282 net67
*283 net68
*284 net69
*285 net7
*286 net70
*287 net71
*288 net72
*289 net73
*290 net74
*291 net75
*292 net76
*293 net77
*294 net78
*295 net79
*296 net8
*297 net80
*298 net81
*299 net82
*300 net83
*301 net84
*302 net85
*303 net86
*304 net87
*305 net88
*306 net89
*307 net9
*308 net90
*309 net91
*310 net92
*311 net93
*312 net94
*313 net95
*314 net96
*315 net97
*316 net98
*317 net99
*318 FILLER_0_104
*319 FILLER_0_138
*320 FILLER_0_172
*321 FILLER_0_2
*322 FILLER_0_206
*323 FILLER_0_222
*324 FILLER_0_240
*325 FILLER_0_274
*326 FILLER_0_303
*327 FILLER_0_305
*328 FILLER_0_336
*329 FILLER_0_36
*330 FILLER_0_370
*331 FILLER_0_404
*332 FILLER_0_438
*333 FILLER_0_472
*334 FILLER_0_478
*335 FILLER_0_512
*336 FILLER_0_546
*337 FILLER_0_70
*338 FILLER_10_101
*339 FILLER_10_107
*340 FILLER_10_171
*341 FILLER_10_177
*342 FILLER_10_18
*343 FILLER_10_193
*344 FILLER_10_2
*345 FILLER_10_209
*346 FILLER_10_241
*347 FILLER_10_255
*348 FILLER_10_287
*349 FILLER_10_295
*350 FILLER_10_304
*351 FILLER_10_312
*352 FILLER_10_314
*353 FILLER_10_317
*354 FILLER_10_34
*355 FILLER_10_349
*356 FILLER_10_358
*357 FILLER_10_37
*358 FILLER_10_374
*359 FILLER_10_382
*360 FILLER_10_384
*361 FILLER_10_387
*362 FILLER_10_451
*363 FILLER_10_457
*364 FILLER_10_521
*365 FILLER_10_527
*366 FILLER_10_531
*367 FILLER_11_136
*368 FILLER_11_142
*369 FILLER_11_2
*370 FILLER_11_206
*371 FILLER_11_212
*372 FILLER_11_224
*373 FILLER_11_256
*374 FILLER_11_272
*375 FILLER_11_282
*376 FILLER_11_286
*377 FILLER_11_296
*378 FILLER_11_312
*379 FILLER_11_320
*380 FILLER_11_330
*381 FILLER_11_34
*382 FILLER_11_346
*383 FILLER_11_352
*384 FILLER_11_416
*385 FILLER_11_422
*386 FILLER_11_486
*387 FILLER_11_492
*388 FILLER_11_50
*389 FILLER_11_524
*390 FILLER_11_528
*391 FILLER_11_530
*392 FILLER_11_58
*393 FILLER_11_72
*394 FILLER_12_101
*395 FILLER_12_107
*396 FILLER_12_171
*397 FILLER_12_177
*398 FILLER_12_2
*399 FILLER_12_241
*400 FILLER_12_247
*401 FILLER_12_263
*402 FILLER_12_271
*403 FILLER_12_280
*404 FILLER_12_312
*405 FILLER_12_314
*406 FILLER_12_317
*407 FILLER_12_321
*408 FILLER_12_330
*409 FILLER_12_34
*410 FILLER_12_362
*411 FILLER_12_37
*412 FILLER_12_378
*413 FILLER_12_382
*414 FILLER_12_384
*415 FILLER_12_387
*416 FILLER_12_451
*417 FILLER_12_457
*418 FILLER_12_521
*419 FILLER_12_527
*420 FILLER_12_531
*421 FILLER_13_136
*422 FILLER_13_142
*423 FILLER_13_158
*424 FILLER_13_166
*425 FILLER_13_178
*426 FILLER_13_186
*427 FILLER_13_198
*428 FILLER_13_2
*429 FILLER_13_206
*430 FILLER_13_220
*431 FILLER_13_229
*432 FILLER_13_245
*433 FILLER_13_253
*434 FILLER_13_263
*435 FILLER_13_279
*436 FILLER_13_290
*437 FILLER_13_322
*438 FILLER_13_338
*439 FILLER_13_348
*440 FILLER_13_352
*441 FILLER_13_368
*442 FILLER_13_376
*443 FILLER_13_380
*444 FILLER_13_389
*445 FILLER_13_405
*446 FILLER_13_413
*447 FILLER_13_417
*448 FILLER_13_419
*449 FILLER_13_422
*450 FILLER_13_486
*451 FILLER_13_492
*452 FILLER_13_508
*453 FILLER_13_516
*454 FILLER_13_66
*455 FILLER_13_72
*456 FILLER_14_101
*457 FILLER_14_107
*458 FILLER_14_123
*459 FILLER_14_139
*460 FILLER_14_143
*461 FILLER_14_152
*462 FILLER_14_168
*463 FILLER_14_172
*464 FILLER_14_174
*465 FILLER_14_177
*466 FILLER_14_2
*467 FILLER_14_241
*468 FILLER_14_247
*469 FILLER_14_279
*470 FILLER_14_295
*471 FILLER_14_299
*472 FILLER_14_301
*473 FILLER_14_310
*474 FILLER_14_314
*475 FILLER_14_317
*476 FILLER_14_34
*477 FILLER_14_347
*478 FILLER_14_355
*479 FILLER_14_37
*480 FILLER_14_373
*481 FILLER_14_381
*482 FILLER_14_387
*483 FILLER_14_419
*484 FILLER_14_435
*485 FILLER_14_451
*486 FILLER_14_457
*487 FILLER_14_473
*488 FILLER_14_481
*489 FILLER_14_493
*490 FILLER_14_509
*491 FILLER_14_527
*492 FILLER_14_531
*493 FILLER_15_101
*494 FILLER_15_118
*495 FILLER_15_138
*496 FILLER_15_146
*497 FILLER_15_150
*498 FILLER_15_165
*499 FILLER_15_169
*500 FILLER_15_172
*501 FILLER_15_176
*502 FILLER_15_18
*503 FILLER_15_191
*504 FILLER_15_199
*505 FILLER_15_2
*506 FILLER_15_20
*507 FILLER_15_203
*508 FILLER_15_220
*509 FILLER_15_240
*510 FILLER_15_248
*511 FILLER_15_252
*512 FILLER_15_254
*513 FILLER_15_269
*514 FILLER_15_27
*515 FILLER_15_271
*516 FILLER_15_274
*517 FILLER_15_278
*518 FILLER_15_280
*519 FILLER_15_295
*520 FILLER_15_303
*521 FILLER_15_305
*522 FILLER_15_31
*523 FILLER_15_322
*524 FILLER_15_33
*525 FILLER_15_338
*526 FILLER_15_342
*527 FILLER_15_358
*528 FILLER_15_36
*529 FILLER_15_373
*530 FILLER_15_376
*531 FILLER_15_384
*532 FILLER_15_399
*533 FILLER_15_407
*534 FILLER_15_410
*535 FILLER_15_425
*536 FILLER_15_44
*537 FILLER_15_441
*538 FILLER_15_444
*539 FILLER_15_46
*540 FILLER_15_460
*541 FILLER_15_478
*542 FILLER_15_486
*543 FILLER_15_488
*544 FILLER_15_503
*545 FILLER_15_507
*546 FILLER_15_509
*547 FILLER_15_512
*548 FILLER_15_514
*549 FILLER_15_529
*550 FILLER_15_560
*551 FILLER_15_61
*552 FILLER_15_65
*553 FILLER_15_67
*554 FILLER_15_70
*555 FILLER_15_72
*556 FILLER_15_87
*557 FILLER_15_95
*558 FILLER_15_99
*559 FILLER_1_136
*560 FILLER_1_142
*561 FILLER_1_158
*562 FILLER_1_166
*563 FILLER_1_17
*564 FILLER_1_170
*565 FILLER_1_172
*566 FILLER_1_189
*567 FILLER_1_2
*568 FILLER_1_205
*569 FILLER_1_209
*570 FILLER_1_212
*571 FILLER_1_221
*572 FILLER_1_282
*573 FILLER_1_284
*574 FILLER_1_33
*575 FILLER_1_349
*576 FILLER_1_416
*577 FILLER_1_43
*578 FILLER_1_478
*579 FILLER_1_486
*580 FILLER_1_492
*581 FILLER_1_508
*582 FILLER_1_512
*583 FILLER_1_530
*584 FILLER_1_59
*585 FILLER_1_6
*586 FILLER_1_67
*587 FILLER_1_69
*588 FILLER_1_72
*589 FILLER_1_8
*590 FILLER_2_101
*591 FILLER_2_107
*592 FILLER_2_17
*593 FILLER_2_171
*594 FILLER_2_177
*595 FILLER_2_2
*596 FILLER_2_209
*597 FILLER_2_225
*598 FILLER_2_233
*599 FILLER_2_247
*600 FILLER_2_291
*601 FILLER_2_300
*602 FILLER_2_33
*603 FILLER_2_37
*604 FILLER_2_381
*605 FILLER_2_451
*606 FILLER_2_457
*607 FILLER_2_467
*608 FILLER_2_469
*609 FILLER_2_478
*610 FILLER_2_510
*611 FILLER_2_514
*612 FILLER_2_516
*613 FILLER_2_527
*614 FILLER_2_531
*615 FILLER_2_6
*616 FILLER_2_8
*617 FILLER_3_108
*618 FILLER_3_116
*619 FILLER_3_126
*620 FILLER_3_134
*621 FILLER_3_138
*622 FILLER_3_142
*623 FILLER_3_2
*624 FILLER_3_206
*625 FILLER_3_212
*626 FILLER_3_228
*627 FILLER_3_236
*628 FILLER_3_259
*629 FILLER_3_263
*630 FILLER_3_290
*631 FILLER_3_306
*632 FILLER_3_310
*633 FILLER_3_312
*634 FILLER_3_343
*635 FILLER_3_347
*636 FILLER_3_349
*637 FILLER_3_408
*638 FILLER_3_416
*639 FILLER_3_458
*640 FILLER_3_500
*641 FILLER_3_509
*642 FILLER_3_525
*643 FILLER_3_529
*644 FILLER_3_66
*645 FILLER_3_72
*646 FILLER_3_88
*647 FILLER_3_96
*648 FILLER_4_101
*649 FILLER_4_107
*650 FILLER_4_123
*651 FILLER_4_127
*652 FILLER_4_137
*653 FILLER_4_161
*654 FILLER_4_169
*655 FILLER_4_173
*656 FILLER_4_177
*657 FILLER_4_193
*658 FILLER_4_197
*659 FILLER_4_2
*660 FILLER_4_206
*661 FILLER_4_214
*662 FILLER_4_226
*663 FILLER_4_234
*664 FILLER_4_236
*665 FILLER_4_247
*666 FILLER_4_263
*667 FILLER_4_271
*668 FILLER_4_275
*669 FILLER_4_277
*670 FILLER_4_286
*671 FILLER_4_295
*672 FILLER_4_311
*673 FILLER_4_317
*674 FILLER_4_325
*675 FILLER_4_337
*676 FILLER_4_34
*677 FILLER_4_361
*678 FILLER_4_363
*679 FILLER_4_37
*680 FILLER_4_372
*681 FILLER_4_376
*682 FILLER_4_387
*683 FILLER_4_403
*684 FILLER_4_407
*685 FILLER_4_431
*686 FILLER_4_439
*687 FILLER_4_457
*688 FILLER_4_489
*689 FILLER_4_505
*690 FILLER_4_513
*691 FILLER_4_527
*692 FILLER_4_531
*693 FILLER_5_112
*694 FILLER_5_128
*695 FILLER_5_136
*696 FILLER_5_142
*697 FILLER_5_17
*698 FILLER_5_174
*699 FILLER_5_176
*700 FILLER_5_193
*701 FILLER_5_2
*702 FILLER_5_203
*703 FILLER_5_207
*704 FILLER_5_209
*705 FILLER_5_212
*706 FILLER_5_220
*707 FILLER_5_224
*708 FILLER_5_226
*709 FILLER_5_235
*710 FILLER_5_267
*711 FILLER_5_275
*712 FILLER_5_279
*713 FILLER_5_282
*714 FILLER_5_290
*715 FILLER_5_294
*716 FILLER_5_304
*717 FILLER_5_320
*718 FILLER_5_328
*719 FILLER_5_332
*720 FILLER_5_334
*721 FILLER_5_343
*722 FILLER_5_347
*723 FILLER_5_349
*724 FILLER_5_352
*725 FILLER_5_368
*726 FILLER_5_376
*727 FILLER_5_378
*728 FILLER_5_385
*729 FILLER_5_397
*730 FILLER_5_413
*731 FILLER_5_417
*732 FILLER_5_419
*733 FILLER_5_422
*734 FILLER_5_454
*735 FILLER_5_470
*736 FILLER_5_478
*737 FILLER_5_49
*738 FILLER_5_492
*739 FILLER_5_524
*740 FILLER_5_528
*741 FILLER_5_530
*742 FILLER_5_6
*743 FILLER_5_65
*744 FILLER_5_69
*745 FILLER_5_8
*746 FILLER_5_80
*747 FILLER_6_101
*748 FILLER_6_107
*749 FILLER_6_171
*750 FILLER_6_177
*751 FILLER_6_2
*752 FILLER_6_241
*753 FILLER_6_247
*754 FILLER_6_279
*755 FILLER_6_295
*756 FILLER_6_303
*757 FILLER_6_305
*758 FILLER_6_314
*759 FILLER_6_317
*760 FILLER_6_34
*761 FILLER_6_349
*762 FILLER_6_365
*763 FILLER_6_37
*764 FILLER_6_381
*765 FILLER_6_387
*766 FILLER_6_403
*767 FILLER_6_419
*768 FILLER_6_435
*769 FILLER_6_443
*770 FILLER_6_457
*771 FILLER_6_465
*772 FILLER_6_469
*773 FILLER_6_479
*774 FILLER_6_511
*775 FILLER_6_519
*776 FILLER_6_523
*777 FILLER_6_527
*778 FILLER_6_535
*779 FILLER_7_104
*780 FILLER_7_116
*781 FILLER_7_132
*782 FILLER_7_142
*783 FILLER_7_2
*784 FILLER_7_206
*785 FILLER_7_212
*786 FILLER_7_244
*787 FILLER_7_260
*788 FILLER_7_264
*789 FILLER_7_266
*790 FILLER_7_275
*791 FILLER_7_279
*792 FILLER_7_282
*793 FILLER_7_34
*794 FILLER_7_346
*795 FILLER_7_352
*796 FILLER_7_416
*797 FILLER_7_422
*798 FILLER_7_43
*799 FILLER_7_438
*800 FILLER_7_470
*801 FILLER_7_486
*802 FILLER_7_492
*803 FILLER_7_524
*804 FILLER_7_528
*805 FILLER_7_530
*806 FILLER_7_59
*807 FILLER_7_67
*808 FILLER_7_69
*809 FILLER_7_72
*810 FILLER_8_107
*811 FILLER_8_139
*812 FILLER_8_155
*813 FILLER_8_163
*814 FILLER_8_177
*815 FILLER_8_187
*816 FILLER_8_2
*817 FILLER_8_219
*818 FILLER_8_229
*819 FILLER_8_247
*820 FILLER_8_255
*821 FILLER_8_264
*822 FILLER_8_296
*823 FILLER_8_304
*824 FILLER_8_313
*825 FILLER_8_317
*826 FILLER_8_326
*827 FILLER_8_34
*828 FILLER_8_358
*829 FILLER_8_368
*830 FILLER_8_37
*831 FILLER_8_384
*832 FILLER_8_387
*833 FILLER_8_451
*834 FILLER_8_457
*835 FILLER_8_489
*836 FILLER_8_505
*837 FILLER_8_513
*838 FILLER_8_527
*839 FILLER_8_531
*840 FILLER_8_69
*841 FILLER_8_71
*842 FILLER_8_80
*843 FILLER_8_96
*844 FILLER_9_136
*845 FILLER_9_142
*846 FILLER_9_2
*847 FILLER_9_206
*848 FILLER_9_212
*849 FILLER_9_276
*850 FILLER_9_282
*851 FILLER_9_314
*852 FILLER_9_338
*853 FILLER_9_346
*854 FILLER_9_352
*855 FILLER_9_416
*856 FILLER_9_422
*857 FILLER_9_486
*858 FILLER_9_492
*859 FILLER_9_524
*860 FILLER_9_532
*861 FILLER_9_536
*862 FILLER_9_66
*863 FILLER_9_72
*864 PHY_EDGE_ROW_0_Left_16
*865 PHY_EDGE_ROW_0_Right_0
*866 PHY_EDGE_ROW_10_Left_26
*867 PHY_EDGE_ROW_10_Right_10
*868 PHY_EDGE_ROW_11_Left_27
*869 PHY_EDGE_ROW_11_Right_11
*870 PHY_EDGE_ROW_12_Left_28
*871 PHY_EDGE_ROW_12_Right_12
*872 PHY_EDGE_ROW_13_Left_29
*873 PHY_EDGE_ROW_13_Right_13
*874 PHY_EDGE_ROW_14_Left_30
*875 PHY_EDGE_ROW_14_Right_14
*876 PHY_EDGE_ROW_15_Left_31
*877 PHY_EDGE_ROW_15_Right_15
*878 PHY_EDGE_ROW_1_Left_17
*879 PHY_EDGE_ROW_1_Right_1
*880 PHY_EDGE_ROW_2_Left_18
*881 PHY_EDGE_ROW_2_Right_2
*882 PHY_EDGE_ROW_3_Left_19
*883 PHY_EDGE_ROW_3_Right_3
*884 PHY_EDGE_ROW_4_Left_20
*885 PHY_EDGE_ROW_4_Right_4
*886 PHY_EDGE_ROW_5_Left_21
*887 PHY_EDGE_ROW_5_Right_5
*888 PHY_EDGE_ROW_6_Left_22
*889 PHY_EDGE_ROW_6_Right_6
*890 PHY_EDGE_ROW_7_Left_23
*891 PHY_EDGE_ROW_7_Right_7
*892 PHY_EDGE_ROW_8_Left_24
*893 PHY_EDGE_ROW_8_Right_8
*894 PHY_EDGE_ROW_9_Left_25
*895 PHY_EDGE_ROW_9_Right_9
*896 TAP_TAPCELL_ROW_0_32
*897 TAP_TAPCELL_ROW_0_33
*898 TAP_TAPCELL_ROW_0_34
*899 TAP_TAPCELL_ROW_0_35
*900 TAP_TAPCELL_ROW_0_36
*901 TAP_TAPCELL_ROW_0_37
*902 TAP_TAPCELL_ROW_0_38
*903 TAP_TAPCELL_ROW_0_39
*904 TAP_TAPCELL_ROW_0_40
*905 TAP_TAPCELL_ROW_0_41
*906 TAP_TAPCELL_ROW_0_42
*907 TAP_TAPCELL_ROW_0_43
*908 TAP_TAPCELL_ROW_0_44
*909 TAP_TAPCELL_ROW_0_45
*910 TAP_TAPCELL_ROW_0_46
*911 TAP_TAPCELL_ROW_0_47
*912 TAP_TAPCELL_ROW_10_120
*913 TAP_TAPCELL_ROW_10_121
*914 TAP_TAPCELL_ROW_10_122
*915 TAP_TAPCELL_ROW_10_123
*916 TAP_TAPCELL_ROW_10_124
*917 TAP_TAPCELL_ROW_10_125
*918 TAP_TAPCELL_ROW_10_126
*919 TAP_TAPCELL_ROW_10_127
*920 TAP_TAPCELL_ROW_11_128
*921 TAP_TAPCELL_ROW_11_129
*922 TAP_TAPCELL_ROW_11_130
*923 TAP_TAPCELL_ROW_11_131
*924 TAP_TAPCELL_ROW_11_132
*925 TAP_TAPCELL_ROW_11_133
*926 TAP_TAPCELL_ROW_11_134
*927 TAP_TAPCELL_ROW_11_135
*928 TAP_TAPCELL_ROW_12_136
*929 TAP_TAPCELL_ROW_12_137
*930 TAP_TAPCELL_ROW_12_138
*931 TAP_TAPCELL_ROW_12_139
*932 TAP_TAPCELL_ROW_12_140
*933 TAP_TAPCELL_ROW_12_141
*934 TAP_TAPCELL_ROW_12_142
*935 TAP_TAPCELL_ROW_12_143
*936 TAP_TAPCELL_ROW_13_144
*937 TAP_TAPCELL_ROW_13_145
*938 TAP_TAPCELL_ROW_13_146
*939 TAP_TAPCELL_ROW_13_147
*940 TAP_TAPCELL_ROW_13_148
*941 TAP_TAPCELL_ROW_13_149
*942 TAP_TAPCELL_ROW_13_150
*943 TAP_TAPCELL_ROW_13_151
*944 TAP_TAPCELL_ROW_14_152
*945 TAP_TAPCELL_ROW_14_153
*946 TAP_TAPCELL_ROW_14_154
*947 TAP_TAPCELL_ROW_14_155
*948 TAP_TAPCELL_ROW_14_156
*949 TAP_TAPCELL_ROW_14_157
*950 TAP_TAPCELL_ROW_14_158
*951 TAP_TAPCELL_ROW_14_159
*952 TAP_TAPCELL_ROW_15_160
*953 TAP_TAPCELL_ROW_15_161
*954 TAP_TAPCELL_ROW_15_162
*955 TAP_TAPCELL_ROW_15_163
*956 TAP_TAPCELL_ROW_15_164
*957 TAP_TAPCELL_ROW_15_165
*958 TAP_TAPCELL_ROW_15_166
*959 TAP_TAPCELL_ROW_15_167
*960 TAP_TAPCELL_ROW_15_168
*961 TAP_TAPCELL_ROW_15_169
*962 TAP_TAPCELL_ROW_15_170
*963 TAP_TAPCELL_ROW_15_171
*964 TAP_TAPCELL_ROW_15_172
*965 TAP_TAPCELL_ROW_15_173
*966 TAP_TAPCELL_ROW_15_174
*967 TAP_TAPCELL_ROW_15_175
*968 TAP_TAPCELL_ROW_1_48
*969 TAP_TAPCELL_ROW_1_49
*970 TAP_TAPCELL_ROW_1_50
*971 TAP_TAPCELL_ROW_1_51
*972 TAP_TAPCELL_ROW_1_52
*973 TAP_TAPCELL_ROW_1_53
*974 TAP_TAPCELL_ROW_1_54
*975 TAP_TAPCELL_ROW_1_55
*976 TAP_TAPCELL_ROW_2_56
*977 TAP_TAPCELL_ROW_2_57
*978 TAP_TAPCELL_ROW_2_58
*979 TAP_TAPCELL_ROW_2_59
*980 TAP_TAPCELL_ROW_2_60
*981 TAP_TAPCELL_ROW_2_61
*982 TAP_TAPCELL_ROW_2_62
*983 TAP_TAPCELL_ROW_2_63
*984 TAP_TAPCELL_ROW_3_64
*985 TAP_TAPCELL_ROW_3_65
*986 TAP_TAPCELL_ROW_3_66
*987 TAP_TAPCELL_ROW_3_67
*988 TAP_TAPCELL_ROW_3_68
*989 TAP_TAPCELL_ROW_3_69
*990 TAP_TAPCELL_ROW_3_70
*991 TAP_TAPCELL_ROW_3_71
*992 TAP_TAPCELL_ROW_4_72
*993 TAP_TAPCELL_ROW_4_73
*994 TAP_TAPCELL_ROW_4_74
*995 TAP_TAPCELL_ROW_4_75
*996 TAP_TAPCELL_ROW_4_76
*997 TAP_TAPCELL_ROW_4_77
*998 TAP_TAPCELL_ROW_4_78
*999 TAP_TAPCELL_ROW_4_79
*1000 TAP_TAPCELL_ROW_5_80
*1001 TAP_TAPCELL_ROW_5_81
*1002 TAP_TAPCELL_ROW_5_82
*1003 TAP_TAPCELL_ROW_5_83
*1004 TAP_TAPCELL_ROW_5_84
*1005 TAP_TAPCELL_ROW_5_85
*1006 TAP_TAPCELL_ROW_5_86
*1007 TAP_TAPCELL_ROW_5_87
*1008 TAP_TAPCELL_ROW_6_88
*1009 TAP_TAPCELL_ROW_6_89
*1010 TAP_TAPCELL_ROW_6_90
*1011 TAP_TAPCELL_ROW_6_91
*1012 TAP_TAPCELL_ROW_6_92
*1013 TAP_TAPCELL_ROW_6_93
*1014 TAP_TAPCELL_ROW_6_94
*1015 TAP_TAPCELL_ROW_6_95
*1016 TAP_TAPCELL_ROW_7_100
*1017 TAP_TAPCELL_ROW_7_101
*1018 TAP_TAPCELL_ROW_7_102
*1019 TAP_TAPCELL_ROW_7_103
*1020 TAP_TAPCELL_ROW_7_96
*1021 TAP_TAPCELL_ROW_7_97
*1022 TAP_TAPCELL_ROW_7_98
*1023 TAP_TAPCELL_ROW_7_99
*1024 TAP_TAPCELL_ROW_8_104
*1025 TAP_TAPCELL_ROW_8_105
*1026 TAP_TAPCELL_ROW_8_106
*1027 TAP_TAPCELL_ROW_8_107
*1028 TAP_TAPCELL_ROW_8_108
*1029 TAP_TAPCELL_ROW_8_109
*1030 TAP_TAPCELL_ROW_8_110
*1031 TAP_TAPCELL_ROW_8_111
*1032 TAP_TAPCELL_ROW_9_112
*1033 TAP_TAPCELL_ROW_9_113
*1034 TAP_TAPCELL_ROW_9_114
*1035 TAP_TAPCELL_ROW_9_115
*1036 TAP_TAPCELL_ROW_9_116
*1037 TAP_TAPCELL_ROW_9_117
*1038 TAP_TAPCELL_ROW_9_118
*1039 TAP_TAPCELL_ROW_9_119
*1040 _000_
*1041 _001_
*1042 _002_
*1043 _003_
*1044 _004_
*1045 _005_
*1046 _006_
*1047 _007_
*1048 _008_
*1049 _009_
*1050 _010_
*1051 _011_
*1052 _012_
*1053 _013_
*1054 _014_
*1055 _015_
*1056 _016_
*1057 _017_
*1058 _018_
*1059 _019_
*1060 _020_
*1061 _021_
*1062 _022_
*1063 _023_
*1064 _024_
*1065 _025_
*1066 _026_
*1067 _027_
*1068 _028_
*1069 _029_
*1070 _030_
*1071 _031_
*1072 _032_
*1073 _033_
*1074 _034_
*1075 _035_
*1076 _036_
*1077 _037_
*1078 _038_
*1079 _039_
*1080 _040_
*1081 _041_
*1082 _042_
*1083 _043_
*1084 _044_
*1085 _045_
*1086 _046_
*1087 _047_
*1088 _048_
*1089 _049_
*1090 _050_
*1091 _051_
*1092 _052_
*1093 _053_
*1094 _054_
*1095 _055_
*1096 _056_
*1097 _057_
*1098 _058_
*1099 _059_
*1100 _060_
*1101 _061_
*1102 _062_
*1103 _063_
*1104 _064_
*1105 _065_
*1106 _066_
*1107 _067_
*1108 _068_
*1109 _069_
*1110 _070_
*1111 _071_
*1112 _072_
*1113 _073_
*1114 _074_
*1115 _075_
*1116 _076_
*1117 _077_
*1118 _078_
*1119 _079_
*1120 _080_
*1121 _081_
*1122 _082_
*1123 _083_
*1124 _084_
*1125 _085_
*1126 _086_
*1127 _087_
*1128 _088_
*1129 _089_
*1130 _090_
*1131 _091_
*1132 _092_
*1133 _093_
*1134 _094_
*1135 _095_
*1136 _096_
*1137 _097_
*1138 _098_
*1139 _099_
*1140 _100_
*1141 _101_
*1142 _102_
*1143 _103_
*1144 _104_
*1145 output1
*1146 output10
*1147 output100
*1148 output101
*1149 output102
*1150 output103
*1151 output104
*1152 output105
*1153 output11
*1154 output12
*1155 output13
*1156 output14
*1157 output15
*1158 output16
*1159 output17
*1160 output18
*1161 output19
*1162 output2
*1163 output20
*1164 output21
*1165 output22
*1166 output23
*1167 output24
*1168 output25
*1169 output26
*1170 output27
*1171 output28
*1172 output29
*1173 output3
*1174 output30
*1175 output31
*1176 output32
*1177 output33
*1178 output34
*1179 output35
*1180 output36
*1181 output37
*1182 output38
*1183 output39
*1184 output4
*1185 output40
*1186 output41
*1187 output42
*1188 output43
*1189 output44
*1190 output45
*1191 output46
*1192 output47
*1193 output48
*1194 output49
*1195 output5
*1196 output50
*1197 output51
*1198 output52
*1199 output53
*1200 output54
*1201 output55
*1202 output56
*1203 output57
*1204 output58
*1205 output59
*1206 output6
*1207 output60
*1208 output61
*1209 output62
*1210 output63
*1211 output64
*1212 output65
*1213 output66
*1214 output67
*1215 output68
*1216 output69
*1217 output7
*1218 output70
*1219 output71
*1220 output72
*1221 output73
*1222 output74
*1223 output75
*1224 output76
*1225 output77
*1226 output78
*1227 output79
*1228 output8
*1229 output80
*1230 output81
*1231 output82
*1232 output83
*1233 output84
*1234 output85
*1235 output86
*1236 output87
*1237 output88
*1238 output89
*1239 output9
*1240 output90
*1241 output91
*1242 output92
*1243 output93
*1244 output94
*1245 output95
*1246 output96
*1247 output97
*1248 output98
*1249 output99

*PORTS
FrameData[0] I
FrameData[10] I
FrameData[11] I
FrameData[12] I
FrameData[13] I
FrameData[14] I
FrameData[15] I
FrameData[16] I
FrameData[17] I
FrameData[18] I
FrameData[19] I
FrameData[1] I
FrameData[20] I
FrameData[21] I
FrameData[22] I
FrameData[23] I
FrameData[24] I
FrameData[25] I
FrameData[26] I
FrameData[27] I
FrameData[28] I
FrameData[29] I
FrameData[2] I
FrameData[30] I
FrameData[31] I
FrameData[3] I
FrameData[4] I
FrameData[5] I
FrameData[6] I
FrameData[7] I
FrameData[8] I
FrameData[9] I
FrameData_O[0] O
FrameData_O[10] O
FrameData_O[11] O
FrameData_O[12] O
FrameData_O[13] O
FrameData_O[14] O
FrameData_O[15] O
FrameData_O[16] O
FrameData_O[17] O
FrameData_O[18] O
FrameData_O[19] O
FrameData_O[1] O
FrameData_O[20] O
FrameData_O[21] O
FrameData_O[22] O
FrameData_O[23] O
FrameData_O[24] O
FrameData_O[25] O
FrameData_O[26] O
FrameData_O[27] O
FrameData_O[28] O
FrameData_O[29] O
FrameData_O[2] O
FrameData_O[30] O
FrameData_O[31] O
FrameData_O[3] O
FrameData_O[4] O
FrameData_O[5] O
FrameData_O[6] O
FrameData_O[7] O
FrameData_O[8] O
FrameData_O[9] O
FrameStrobe[0] I
FrameStrobe[10] I
FrameStrobe[11] I
FrameStrobe[12] I
FrameStrobe[13] I
FrameStrobe[14] I
FrameStrobe[15] I
FrameStrobe[16] I
FrameStrobe[17] I
FrameStrobe[18] I
FrameStrobe[19] I
FrameStrobe[1] I
FrameStrobe[2] I
FrameStrobe[3] I
FrameStrobe[4] I
FrameStrobe[5] I
FrameStrobe[6] I
FrameStrobe[7] I
FrameStrobe[8] I
FrameStrobe[9] I
FrameStrobe_O[0] O
FrameStrobe_O[10] O
FrameStrobe_O[11] O
FrameStrobe_O[12] O
FrameStrobe_O[13] O
FrameStrobe_O[14] O
FrameStrobe_O[15] O
FrameStrobe_O[16] O
FrameStrobe_O[17] O
FrameStrobe_O[18] O
FrameStrobe_O[19] O
FrameStrobe_O[1] O
FrameStrobe_O[2] O
FrameStrobe_O[3] O
FrameStrobe_O[4] O
FrameStrobe_O[5] O
FrameStrobe_O[6] O
FrameStrobe_O[7] O
FrameStrobe_O[8] O
FrameStrobe_O[9] O
N1END[0] I
N1END[1] I
N1END[2] I
N1END[3] I
N2END[0] I
N2END[1] I
N2END[2] I
N2END[3] I
N2END[4] I
N2END[5] I
N2END[6] I
N2END[7] I
N2MID[0] I
N2MID[1] I
N2MID[2] I
N2MID[3] I
N2MID[4] I
N2MID[5] I
N2MID[6] I
N2MID[7] I
N4END[0] I
N4END[10] I
N4END[11] I
N4END[12] I
N4END[13] I
N4END[14] I
N4END[15] I
N4END[1] I
N4END[2] I
N4END[3] I
N4END[4] I
N4END[5] I
N4END[6] I
N4END[7] I
N4END[8] I
N4END[9] I
NN4END[0] I
NN4END[10] I
NN4END[11] I
NN4END[12] I
NN4END[13] I
NN4END[14] I
NN4END[15] I
NN4END[1] I
NN4END[2] I
NN4END[3] I
NN4END[4] I
NN4END[5] I
NN4END[6] I
NN4END[7] I
NN4END[8] I
NN4END[9] I
S1BEG[0] O
S1BEG[1] O
S1BEG[2] O
S1BEG[3] O
S2BEG[0] O
S2BEG[1] O
S2BEG[2] O
S2BEG[3] O
S2BEG[4] O
S2BEG[5] O
S2BEG[6] O
S2BEG[7] O
S2BEGb[0] O
S2BEGb[1] O
S2BEGb[2] O
S2BEGb[3] O
S2BEGb[4] O
S2BEGb[5] O
S2BEGb[6] O
S2BEGb[7] O
S4BEG[0] O
S4BEG[10] O
S4BEG[11] O
S4BEG[12] O
S4BEG[13] O
S4BEG[14] O
S4BEG[15] O
S4BEG[1] O
S4BEG[2] O
S4BEG[3] O
S4BEG[4] O
S4BEG[5] O
S4BEG[6] O
S4BEG[7] O
S4BEG[8] O
S4BEG[9] O
SS4BEG[0] O
SS4BEG[10] O
SS4BEG[11] O
SS4BEG[12] O
SS4BEG[13] O
SS4BEG[14] O
SS4BEG[15] O
SS4BEG[1] O
SS4BEG[2] O
SS4BEG[3] O
SS4BEG[4] O
SS4BEG[5] O
SS4BEG[6] O
SS4BEG[7] O
SS4BEG[8] O
SS4BEG[9] O
UserCLK I
UserCLKo O

*D_NET *1 0.0294854
*CONN
*P FrameData[0] I
*I *1040:I I *D gf180mcu_fd_sc_mcu7t5v0__buf_2
*CAP
1 FrameData[0] 0.0014882
2 *1040:I 0.00118006
3 *1:19 0.00266826
4 *1040:I *1097:I 0.00059892
5 *1040:I *1101:I 0.000177992
6 *1040:I *1111:I 0.000168413
7 *1040:I *1119:I 3.09593e-05
8 *1040:I *1135:I 0.000289734
9 *1040:I *1137:I 0
10 *1040:I *1139:I 0.000643348
11 *1040:I *1201:I 0.000798404
12 *1040:I *1204:I 0.000385478
13 *1040:I *3:25 0.00168761
14 *1040:I *20:45 0.000356843
15 *1040:I *109:27 0.00168528
16 *1040:I *116:25 0.00116218
17 *1040:I *132:25 0
18 *1040:I *138:23 0.00107052
19 *1040:I *139:29 0.000873265
20 *1040:I *145:25 0.000339901
21 *1040:I *214:16 7.45328e-07
22 *1040:I *299:32 2.9378e-05
23 *1040:I *302:18 0.00149522
24 *1040:I *311:18 0.00264239
25 *1040:I *311:38 0.000509993
26 *1040:I *313:20 0.000433002
27 *1:19 *1092:I 1.80144e-05
28 *1:19 *1093:I 8.04367e-06
29 *1:19 *1115:I 0.000153691
30 *1:19 *1143:I 0.00444323
31 *1:19 *12:23 0.000123795
32 *1:19 *23:29 0.00193585
33 *1:19 *26:25 0.000206161
34 *1:19 *105:25 0.000255262
35 *1:19 *106:21 0.000138474
36 *1:19 *112:19 0.000580808
37 *1:19 *117:19 0.000396979
38 *1:19 *125:23 0.000508954
39 *1:19 *302:18 0
*RES
1 FrameData[0] *1:19 39.09 
2 *1:19 *1040:I 44.144 
*END

*D_NET *2 0.0326939
*CONN
*P FrameData[10] I
*I *1050:I I *D gf180mcu_fd_sc_mcu7t5v0__buf_2
*CAP
1 FrameData[10] 0.00311593
2 *1050:I 0.000178975
3 *2:33 0.00105383
4 *2:15 0.00399078
5 *1050:I *1066:I 0.000114072
6 *1050:I *1080:I 7.83779e-05
7 *2:15 *1048:I 8.6504e-05
8 *2:15 *1093:I 0
9 *2:15 *1177:I 0
10 *2:15 *3:25 0.0011767
11 *2:15 *21:17 0.000119357
12 *2:15 *25:23 0.00145797
13 *2:15 *26:25 0.00234655
14 *2:15 *30:23 0.000500127
15 *2:15 *32:11 0.000276506
16 *2:15 *111:19 9.71886e-05
17 *2:33 *1046:I 0.00279535
18 *2:33 *1048:I 0.000246413
19 *2:33 *1065:I 0.000406056
20 *2:33 *1068:I 0.000889101
21 *2:33 *1071:I 0.000243973
22 *2:33 *9:43 0.00134207
23 *2:33 *19:43 3.61145e-06
24 *2:33 *21:17 0.00543709
25 *2:33 *25:35 0.00211075
26 *2:33 *82:39 0.0024589
27 *2:33 *308:36 0
28 *2:33 *312:48 0.00216774
*RES
1 FrameData[10] *2:15 37.994 
2 *2:15 *2:33 45.74 
3 *2:33 *1050:I 10.216 
*END

*D_NET *3 0.0411686
*CONN
*P FrameData[11] I
*I *1051:I I *D gf180mcu_fd_sc_mcu7t5v0__buf_2
*CAP
1 FrameData[11] 0.00187823
2 *1051:I 0
3 *3:43 0.00235455
4 *3:25 0.00423278
5 *3:25 *1060:I 0.00201947
6 *3:25 *1095:I 0.00138587
7 *3:25 *1106:I 0.000131816
8 *3:25 *1108:I 0.00470683
9 *3:25 *1111:I 7.92072e-05
10 *3:25 *1114:I 0.0037289
11 *3:25 *4:21 0.000246171
12 *3:25 *5:17 0.000297839
13 *3:25 *20:45 6.57432e-05
14 *3:25 *26:25 0.000103216
15 *3:25 *30:23 0.00146081
16 *3:25 *112:19 0.000912702
17 *3:25 *139:29 0.000879946
18 *3:25 *298:24 0.00015961
19 *3:25 *310:26 0.00250614
20 *3:25 *312:24 0.000357334
21 *3:43 *1045:I 1.02457e-05
22 *3:43 *1046:I 5.66946e-05
23 *3:43 *1059:I 2.49331e-05
24 *3:43 *1067:I 4.0562e-05
25 *3:43 *1068:I 3.86693e-05
26 *3:43 *1080:I 4.98138e-05
27 *3:43 *1108:I 0.000300836
28 *3:43 *1216:I 8.92788e-06
29 *3:43 *1220:I 0.00199732
30 *3:43 *1230:I 0
31 *3:43 *82:39 0
32 *3:43 *136:31 4.5766e-06
33 *3:43 *147:15 9.67623e-05
34 *3:43 *231:16 7.83779e-05
35 *3:43 *232:20 0.000221419
36 *3:43 *238:20 5.85766e-05
37 *3:43 *242:20 0.000723566
38 *3:43 *243:24 0.00172862
39 *3:43 *244:12 0.000516581
40 *3:43 *245:18 0.00250591
41 *3:43 *299:32 0.000162918
42 *3:43 *310:42 0.00217178
43 *1040:I *3:25 0.00168761
44 *2:15 *3:25 0.0011767
*RES
1 FrameData[11] *3:25 46.094 
2 *3:25 *3:43 48.036 
3 *3:43 *1051:I 4.5 
*END

*D_NET *4 0.0416786
*CONN
*P FrameData[12] I
*I *1052:I I *D gf180mcu_fd_sc_mcu7t5v0__buf_2
*CAP
1 FrameData[12] 0.0016516
2 *1052:I 0.00115854
3 *4:43 0.00175072
4 *4:21 0.00224378
5 *1052:I *1045:I 0.00183943
6 *1052:I *1059:I 0.000184352
7 *1052:I *1110:I 7.10628e-05
8 *1052:I *1179:I 7.67639e-05
9 *1052:I *9:43 0.000223163
10 *1052:I *82:39 0.000181996
11 *1052:I *144:31 0.000927649
12 *1052:I *145:25 0.000483877
13 *1052:I *220:26 0.00142771
14 *1052:I *226:16 6.15455e-05
15 *1052:I *229:18 2.68517e-05
16 *1052:I *230:18 1.92708e-05
17 *1052:I *231:16 0.000823291
18 *1052:I *235:10 0.000578873
19 *1052:I *246:14 7.67639e-05
20 *1052:I *263:22 0.00128732
21 *1052:I *308:36 7.33512e-05
22 *4:21 *5:17 0.000367582
23 *4:21 *7:25 0.000712439