* NGSPICE file created from LUT4AB.ext - technology: gf180mcuD

* Black-box entry subcircuit for gf180mcu_fd_sc_mcu7t5v0__latq_1 abstract view
.subckt gf180mcu_fd_sc_mcu7t5v0__latq_1 D E Q VDD VNW VPW VSS
.ends

* Black-box entry subcircuit for gf180mcu_fd_sc_mcu7t5v0__fill_2 abstract view
.subckt gf180mcu_fd_sc_mcu7t5v0__fill_2 VDD VNW VPW VSS
.ends

* Black-box entry subcircuit for gf180mcu_fd_sc_mcu7t5v0__filltie abstract view
.subckt gf180mcu_fd_sc_mcu7t5v0__filltie VDD VSS
.ends

* Black-box entry subcircuit for gf180mcu_fd_sc_mcu7t5v0__endcap abstract view
.subckt gf180mcu_fd_sc_mcu7t5v0__endcap VDD VSS
.ends

* Black-box entry subcircuit for gf180mcu_fd_sc_mcu7t5v0__mux2_2 abstract view
.subckt gf180mcu_fd_sc_mcu7t5v0__mux2_2 I0 I1 S Z VDD VNW VPW VSS
.ends

* Black-box entry subcircuit for gf180mcu_fd_sc_mcu7t5v0__fill_1 abstract view
.subckt gf180mcu_fd_sc_mcu7t5v0__fill_1 VDD VNW VPW VSS
.ends

* Black-box entry subcircuit for gf180mcu_fd_sc_mcu7t5v0__aoi22_1 abstract view
.subckt gf180mcu_fd_sc_mcu7t5v0__aoi22_1 A1 A2 B1 B2 ZN VDD VNW VPW VSS
.ends

* Black-box entry subcircuit for gf180mcu_fd_sc_mcu7t5v0__buf_1 abstract view
.subckt gf180mcu_fd_sc_mcu7t5v0__buf_1 I Z VDD VNW VPW VSS
.ends

* Black-box entry subcircuit for gf180mcu_fd_sc_mcu7t5v0__mux4_1 abstract view
.subckt gf180mcu_fd_sc_mcu7t5v0__mux4_1 I0 I1 I2 I3 S0 S1 Z VDD VNW VPW VSS
.ends

* Black-box entry subcircuit for gf180mcu_fd_sc_mcu7t5v0__oai211_1 abstract view
.subckt gf180mcu_fd_sc_mcu7t5v0__oai211_1 A1 A2 B C ZN VDD VNW VPW VSS
.ends

* Black-box entry subcircuit for gf180mcu_fd_sc_mcu7t5v0__nand2_1 abstract view
.subckt gf180mcu_fd_sc_mcu7t5v0__nand2_1 A1 A2 ZN VDD VNW VPW VSS
.ends

* Black-box entry subcircuit for gf180mcu_fd_sc_mcu7t5v0__fillcap_4 abstract view
.subckt gf180mcu_fd_sc_mcu7t5v0__fillcap_4 VDD VNW VPW VSS
.ends

* Black-box entry subcircuit for gf180mcu_fd_sc_mcu7t5v0__fillcap_16 abstract view
.subckt gf180mcu_fd_sc_mcu7t5v0__fillcap_16 VDD VNW VPW VSS
.ends

* Black-box entry subcircuit for gf180mcu_fd_sc_mcu7t5v0__clkinv_1 abstract view
.subckt gf180mcu_fd_sc_mcu7t5v0__clkinv_1 I ZN VDD VNW VPW VSS
.ends

* Black-box entry subcircuit for gf180mcu_fd_sc_mcu7t5v0__dffq_1 abstract view
.subckt gf180mcu_fd_sc_mcu7t5v0__dffq_1 D CLK Q VDD VNW VPW VSS
.ends

* Black-box entry subcircuit for gf180mcu_fd_sc_mcu7t5v0__oai21_1 abstract view
.subckt gf180mcu_fd_sc_mcu7t5v0__oai21_1 A1 A2 B ZN VDD VNW VPW VSS
.ends

* Black-box entry subcircuit for gf180mcu_fd_sc_mcu7t5v0__fillcap_8 abstract view
.subckt gf180mcu_fd_sc_mcu7t5v0__fillcap_8 VDD VNW VPW VSS
.ends

* Black-box entry subcircuit for gf180mcu_fd_sc_mcu7t5v0__antenna abstract view
.subckt gf180mcu_fd_sc_mcu7t5v0__antenna I VDD VNW VPW VSS
.ends

* Black-box entry subcircuit for gf180mcu_fd_sc_mcu7t5v0__nor2_1 abstract view
.subckt gf180mcu_fd_sc_mcu7t5v0__nor2_1 A1 A2 ZN VDD VNW VPW VSS
.ends

* Black-box entry subcircuit for gf180mcu_fd_sc_mcu7t5v0__aoi21_1 abstract view
.subckt gf180mcu_fd_sc_mcu7t5v0__aoi21_1 A1 A2 B ZN VDD VNW VPW VSS
.ends

* Black-box entry subcircuit for gf180mcu_fd_sc_mcu7t5v0__aoi221_1 abstract view
.subckt gf180mcu_fd_sc_mcu7t5v0__aoi221_1 A1 A2 B1 B2 C ZN VDD VNW VPW VSS
.ends

* Black-box entry subcircuit for gf180mcu_fd_sc_mcu7t5v0__oai221_1 abstract view
.subckt gf180mcu_fd_sc_mcu7t5v0__oai221_1 A1 A2 B1 B2 C ZN VDD VNW VPW VSS
.ends

* Black-box entry subcircuit for gf180mcu_fd_sc_mcu7t5v0__oai22_1 abstract view
.subckt gf180mcu_fd_sc_mcu7t5v0__oai22_1 A1 A2 B1 B2 ZN VDD VNW VPW VSS
.ends

* Black-box entry subcircuit for gf180mcu_fd_sc_mcu7t5v0__and2_1 abstract view
.subckt gf180mcu_fd_sc_mcu7t5v0__and2_1 A1 A2 Z VDD VNW VPW VSS
.ends

* Black-box entry subcircuit for gf180mcu_fd_sc_mcu7t5v0__aoi211_1 abstract view
.subckt gf180mcu_fd_sc_mcu7t5v0__aoi211_1 A1 A2 B C ZN VDD VNW VPW VSS
.ends

* Black-box entry subcircuit for gf180mcu_fd_sc_mcu7t5v0__fillcap_32 abstract view
.subckt gf180mcu_fd_sc_mcu7t5v0__fillcap_32 VDD VNW VPW VSS
.ends

* Black-box entry subcircuit for gf180mcu_fd_sc_mcu7t5v0__oai31_1 abstract view
.subckt gf180mcu_fd_sc_mcu7t5v0__oai31_1 A1 A2 A3 B ZN VDD VNW VPW VSS
.ends

* Black-box entry subcircuit for gf180mcu_fd_sc_mcu7t5v0__or2_1 abstract view
.subckt gf180mcu_fd_sc_mcu7t5v0__or2_1 A1 A2 Z VDD VNW VPW VSS
.ends

* Black-box entry subcircuit for gf180mcu_fd_sc_mcu7t5v0__oai32_1 abstract view
.subckt gf180mcu_fd_sc_mcu7t5v0__oai32_1 A1 A2 A3 B1 B2 ZN VDD VNW VPW VSS
.ends

* Black-box entry subcircuit for gf180mcu_fd_sc_mcu7t5v0__nor3_1 abstract view
.subckt gf180mcu_fd_sc_mcu7t5v0__nor3_1 A1 A2 A3 ZN VDD VNW VPW VSS
.ends

* Black-box entry subcircuit for gf180mcu_fd_sc_mcu7t5v0__and3_1 abstract view
.subckt gf180mcu_fd_sc_mcu7t5v0__and3_1 A1 A2 A3 Z VDD VNW VPW VSS
.ends

* Black-box entry subcircuit for gf180mcu_fd_sc_mcu7t5v0__nor4_1 abstract view
.subckt gf180mcu_fd_sc_mcu7t5v0__nor4_1 A1 A2 A3 A4 ZN VDD VNW VPW VSS
.ends

* Black-box entry subcircuit for gf180mcu_fd_sc_mcu7t5v0__oai222_1 abstract view
.subckt gf180mcu_fd_sc_mcu7t5v0__oai222_1 A1 A2 B1 B2 C1 C2 ZN VDD VNW VPW VSS
.ends

* Black-box entry subcircuit for gf180mcu_fd_sc_mcu7t5v0__clkbuf_16 abstract view
.subckt gf180mcu_fd_sc_mcu7t5v0__clkbuf_16 I Z VDD VNW VPW VSS
.ends

* Black-box entry subcircuit for gf180mcu_fd_sc_mcu7t5v0__nand3_1 abstract view
.subckt gf180mcu_fd_sc_mcu7t5v0__nand3_1 A1 A2 A3 ZN VDD VNW VPW VSS
.ends

* Black-box entry subcircuit for gf180mcu_fd_sc_mcu7t5v0__or3_1 abstract view
.subckt gf180mcu_fd_sc_mcu7t5v0__or3_1 A1 A2 A3 Z VDD VNW VPW VSS
.ends

.subckt LUT4AB Ci Co E1BEG[0] E1BEG[1] E1BEG[2] E1BEG[3] E1END[0] E1END[1] E1END[2]
+ E1END[3] E2BEG[0] E2BEG[1] E2BEG[2] E2BEG[3] E2BEG[4] E2BEG[5] E2BEG[6] E2BEG[7]
+ E2BEGb[0] E2BEGb[1] E2BEGb[2] E2BEGb[3] E2BEGb[4] E2BEGb[5] E2BEGb[6] E2BEGb[7]
+ E2END[0] E2END[1] E2END[2] E2END[3] E2END[4] E2END[5] E2END[6] E2END[7] E2MID[0]
+ E2MID[1] E2MID[2] E2MID[3] E2MID[4] E2MID[5] E2MID[6] E2MID[7] E6BEG[0] E6BEG[10]
+ E6BEG[11] E6BEG[1] E6BEG[2] E6BEG[3] E6BEG[4] E6BEG[5] E6BEG[6] E6BEG[7] E6BEG[8]
+ E6BEG[9] E6END[0] E6END[10] E6END[11] E6END[1] E6END[2] E6END[3] E6END[4] E6END[5]
+ E6END[6] E6END[7] E6END[8] E6END[9] EE4BEG[0] EE4BEG[10] EE4BEG[11] EE4BEG[12] EE4BEG[13]
+ EE4BEG[14] EE4BEG[15] EE4BEG[1] EE4BEG[2] EE4BEG[3] EE4BEG[4] EE4BEG[5] EE4BEG[6]
+ EE4BEG[7] EE4BEG[8] EE4BEG[9] EE4END[0] EE4END[10] EE4END[11] EE4END[12] EE4END[13]
+ EE4END[14] EE4END[15] EE4END[1] EE4END[2] EE4END[3] EE4END[4] EE4END[5] EE4END[6]
+ EE4END[7] EE4END[8] EE4END[9] FrameData[0] FrameData[10] FrameData[11] FrameData[12]
+ FrameData[13] FrameData[14] FrameData[15] FrameData[16] FrameData[17] FrameData[18]
+ FrameData[19] FrameData[1] FrameData[20] FrameData[21] FrameData[22] FrameData[23]
+ FrameData[24] FrameData[25] FrameData[26] FrameData[27] FrameData[28] FrameData[29]
+ FrameData[2] FrameData[30] FrameData[31] FrameData[3] FrameData[4] FrameData[5]
+ FrameData[6] FrameData[7] FrameData[8] FrameData[9] FrameData_O[0] FrameData_O[10]
+ FrameData_O[11] FrameData_O[12] FrameData_O[13] FrameData_O[14] FrameData_O[15]
+ FrameData_O[16] FrameData_O[17] FrameData_O[18] FrameData_O[19] FrameData_O[1] FrameData_O[20]
+ FrameData_O[21] FrameData_O[22] FrameData_O[23] FrameData_O[24] FrameData_O[25]
+ FrameData_O[26] FrameData_O[27] FrameData_O[28] FrameData_O[29] FrameData_O[2] FrameData_O[30]
+ FrameData_O[31] FrameData_O[3] FrameData_O[4] FrameData_O[5] FrameData_O[6] FrameData_O[7]
+ FrameData_O[8] FrameData_O[9] FrameStrobe[0] FrameStrobe[10] FrameStrobe[11] FrameStrobe[12]
+ FrameStrobe[13] FrameStrobe[14] FrameStrobe[15] FrameStrobe[16] FrameStrobe[17]
+ FrameStrobe[18] FrameStrobe[19] FrameStrobe[1] FrameStrobe[2] FrameStrobe[3] FrameStrobe[4]
+ FrameStrobe[5] FrameStrobe[6] FrameStrobe[7] FrameStrobe[8] FrameStrobe[9] FrameStrobe_O[0]
+ FrameStrobe_O[10] FrameStrobe_O[11] FrameStrobe_O[12] FrameStrobe_O[13] FrameStrobe_O[14]
+ FrameStrobe_O[15] FrameStrobe_O[16] FrameStrobe_O[17] FrameStrobe_O[18] FrameStrobe_O[19]
+ FrameStrobe_O[1] FrameStrobe_O[2] FrameStrobe_O[3] FrameStrobe_O[4] FrameStrobe_O[5]
+ FrameStrobe_O[6] FrameStrobe_O[7] FrameStrobe_O[8] FrameStrobe_O[9] N1BEG[0] N1BEG[1]
+ N1BEG[2] N1BEG[3] N1END[0] N1END[1] N1END[2] N1END[3] N2BEG[0] N2BEG[1] N2BEG[2]
+ N2BEG[3] N2BEG[4] N2BEG[5] N2BEG[6] N2BEG[7] N2BEGb[0] N2BEGb[1] N2BEGb[2] N2BEGb[3]
+ N2BEGb[4] N2BEGb[5] N2BEGb[6] N2BEGb[7] N2END[0] N2END[1] N2END[2] N2END[3] N2END[4]
+ N2END[5] N2END[6] N2END[7] N2MID[0] N2MID[1] N2MID[2] N2MID[3] N2MID[4] N2MID[5]
+ N2MID[6] N2MID[7] N4BEG[0] N4BEG[10] N4BEG[11] N4BEG[12] N4BEG[13] N4BEG[14] N4BEG[15]
+ N4BEG[1] N4BEG[2] N4BEG[3] N4BEG[4] N4BEG[5] N4BEG[6] N4BEG[7] N4BEG[8] N4BEG[9]
+ N4END[0] N4END[10] N4END[11] N4END[12] N4END[13] N4END[14] N4END[15] N4END[1] N4END[2]
+ N4END[3] N4END[4] N4END[5] N4END[6] N4END[7] N4END[8] N4END[9] NN4BEG[0] NN4BEG[10]
+ NN4BEG[11] NN4BEG[12] NN4BEG[13] NN4BEG[14] NN4BEG[15] NN4BEG[1] NN4BEG[2] NN4BEG[3]
+ NN4BEG[4] NN4BEG[5] NN4BEG[6] NN4BEG[7] NN4BEG[8] NN4BEG[9] NN4END[0] NN4END[10]
+ NN4END[11] NN4END[12] NN4END[13] NN4END[14] NN4END[15] NN4END[1] NN4END[2] NN4END[3]
+ NN4END[4] NN4END[5] NN4END[6] NN4END[7] NN4END[8] NN4END[9] S1BEG[0] S1BEG[1] S1BEG[2]
+ S1BEG[3] S1END[0] S1END[1] S1END[2] S1END[3] S2BEG[0] S2BEG[1] S2BEG[2] S2BEG[3]
+ S2BEG[4] S2BEG[5] S2BEG[6] S2BEG[7] S2BEGb[0] S2BEGb[1] S2BEGb[2] S2BEGb[3] S2BEGb[4]
+ S2BEGb[5] S2BEGb[6] S2BEGb[7] S2END[0] S2END[1] S2END[2] S2END[3] S2END[4] S2END[5]
+ S2END[6] S2END[7] S2MID[0] S2MID[1] S2MID[2] S2MID[3] S2MID[4] S2MID[5] S2MID[6]
+ S2MID[7] S4BEG[0] S4BEG[10] S4BEG[11] S4BEG[12] S4BEG[13] S4BEG[14] S4BEG[15] S4BEG[1]
+ S4BEG[2] S4BEG[3] S4BEG[4] S4BEG[5] S4BEG[6] S4BEG[7] S4BEG[8] S4BEG[9] S4END[0]
+ S4END[10] S4END[11] S4END[12] S4END[13] S4END[14] S4END[15] S4END[1] S4END[2] S4END[3]
+ S4END[4] S4END[5] S4END[6] S4END[7] S4END[8] S4END[9] SS4BEG[0] SS4BEG[10] SS4BEG[11]
+ SS4BEG[12] SS4BEG[13] SS4BEG[14] SS4BEG[15] SS4BEG[1] SS4BEG[2] SS4BEG[3] SS4BEG[4]
+ SS4BEG[5] SS4BEG[6] SS4BEG[7] SS4BEG[8] SS4BEG[9] SS4END[0] SS4END[10] SS4END[11]
+ SS4END[12] SS4END[13] SS4END[14] SS4END[15] SS4END[1] SS4END[2] SS4END[3] SS4END[4]
+ SS4END[5] SS4END[6] SS4END[7] SS4END[8] SS4END[9] UserCLK UserCLKo VDD VSS W1BEG[0]
+ W1BEG[1] W1BEG[2] W1BEG[3] W1END[0] W1END[1] W1END[2] W1END[3] W2BEG[0] W2BEG[1]
+ W2BEG[2] W2BEG[3] W2BEG[4] W2BEG[5] W2BEG[6] W2BEG[7] W2BEGb[0] W2BEGb[1] W2BEGb[2]
+ W2BEGb[3] W2BEGb[4] W2BEGb[5] W2BEGb[6] W2BEGb[7] W2END[0] W2END[1] W2END[2] W2END[3]
+ W2END[4] W2END[5] W2END[6] W2END[7] W2MID[0] W2MID[1] W2MID[2] W2MID[3] W2MID[4]
+ W2MID[5] W2MID[6] W2MID[7] W6BEG[0] W6BEG[10] W6BEG[11] W6BEG[1] W6BEG[2] W6BEG[3]
+ W6BEG[4] W6BEG[5] W6BEG[6] W6BEG[7] W6BEG[8] W6BEG[9] W6END[0] W6END[10] W6END[11]
+ W6END[1] W6END[2] W6END[3] W6END[4] W6END[5] W6END[6] W6END[7] W6END[8] W6END[9]
+ WW4BEG[0] WW4BEG[10] WW4BEG[11] WW4BEG[12] WW4BEG[13] WW4BEG[14] WW4BEG[15] WW4BEG[1]
+ WW4BEG[2] WW4BEG[3] WW4BEG[4] WW4BEG[5] WW4BEG[6] WW4BEG[7] WW4BEG[8] WW4BEG[9]
+ WW4END[0] WW4END[10] WW4END[11] WW4END[12] WW4END[13] WW4END[14] WW4END[15] WW4END[1]
+ WW4END[2] WW4END[3] WW4END[4] WW4END[5] WW4END[6] WW4END[7] WW4END[8] WW4END[9]
X_2106_ FrameData[3] FrameStrobe[9] Inst_LUT4AB_ConfigMem.Inst_frame9_bit3.Q VDD VDD
+ VSS VSS gf180mcu_fd_sc_mcu7t5v0__latq_1
XFILLER_39_277 VDD VDD VSS VSS gf180mcu_fd_sc_mcu7t5v0__fill_2
XTAP_TAPCELL_ROW_37_412 VDD VSS gf180mcu_fd_sc_mcu7t5v0__filltie
X_2037_ FrameData[30] FrameStrobe[12] Inst_LUT4AB_ConfigMem.Inst_frame12_bit30.Q VDD
+ VDD VSS VSS gf180mcu_fd_sc_mcu7t5v0__latq_1
XFILLER_50_497 VDD VDD VSS VSS gf180mcu_fd_sc_mcu7t5v0__fill_2
XFILLER_10_317 VDD VDD VSS VSS gf180mcu_fd_sc_mcu7t5v0__fill_2
XPHY_EDGE_ROW_39_Left_110 VDD VSS gf180mcu_fd_sc_mcu7t5v0__endcap
X_1270_ E2MID[6] S2MID[6] Inst_LUT4AB_ConfigMem.Inst_frame7_bit2.Q _0247_ VDD VDD
+ VSS VSS gf180mcu_fd_sc_mcu7t5v0__mux2_2
XFILLER_32_431 VDD VDD VSS VSS gf180mcu_fd_sc_mcu7t5v0__fill_1
XFILLER_17_461 VDD VDD VSS VSS gf180mcu_fd_sc_mcu7t5v0__fill_1
X_0985_ _0824_ _0825_ _0827_ _0829_ Inst_LUT4AB_switch_matrix.JN2BEG1 VDD VDD VSS
+ VSS gf180mcu_fd_sc_mcu7t5v0__aoi22_1
X_2655_ W2MID[7] net226 VDD VDD VSS VSS gf180mcu_fd_sc_mcu7t5v0__buf_1
X_1606_ S2END[1] W2END[1] S4END[1] W6END[1] Inst_LUT4AB_ConfigMem.Inst_frame3_bit27.Q
+ Inst_LUT4AB_ConfigMem.Inst_frame3_bit26.Q _0562_ VDD VDD VSS VSS gf180mcu_fd_sc_mcu7t5v0__mux4_1
X_1468_ Inst_LUT4AB_ConfigMem.Inst_frame8_bit9.Q _0432_ _0434_ _0775_ _0435_ VDD VDD
+ VSS VSS gf180mcu_fd_sc_mcu7t5v0__oai211_1
X_1399_ Inst_LUT4AB_ConfigMem.Inst_frame9_bit30.Q _0365_ _0370_ VDD VDD VSS VSS gf180mcu_fd_sc_mcu7t5v0__nand2_1
X_1537_ A B C D Inst_LUT4AB_ConfigMem.Inst_frame2_bit22.Q Inst_LUT4AB_ConfigMem.Inst_frame2_bit23.Q
+ _0500_ VDD VDD VSS VSS gf180mcu_fd_sc_mcu7t5v0__mux4_1
X_2586_ Inst_LUT4AB_switch_matrix.S1BEG3 net157 VDD VDD VSS VSS gf180mcu_fd_sc_mcu7t5v0__buf_1
XFILLER_27_203 VDD VDD VSS VSS gf180mcu_fd_sc_mcu7t5v0__fillcap_4
XTAP_TAPCELL_ROW_40_429 VDD VSS gf180mcu_fd_sc_mcu7t5v0__filltie
XFILLER_10_169 VDD VDD VSS VSS gf180mcu_fd_sc_mcu7t5v0__fillcap_4
XTAP_TAPCELL_ROW_5_184 VDD VSS gf180mcu_fd_sc_mcu7t5v0__filltie
XFILLER_18_247 VDD VDD VSS VSS gf180mcu_fd_sc_mcu7t5v0__fillcap_16
XFILLER_53_83 VDD VDD VSS VSS gf180mcu_fd_sc_mcu7t5v0__fill_2
XFILLER_33_228 VDD VDD VSS VSS gf180mcu_fd_sc_mcu7t5v0__fill_2
XFILLER_14_431 VDD VDD VSS VSS gf180mcu_fd_sc_mcu7t5v0__fill_2
X_2440_ Inst_LUT4AB_switch_matrix.E2BEG5 net11 VDD VDD VSS VSS gf180mcu_fd_sc_mcu7t5v0__buf_1
X_2371_ FrameData[12] FrameStrobe[1] Inst_LUT4AB_ConfigMem.Inst_frame1_bit12.Q VDD
+ VDD VSS VSS gf180mcu_fd_sc_mcu7t5v0__latq_1
X_1253_ _0231_ _0213_ _0176_ _0232_ VDD VDD VSS VSS gf180mcu_fd_sc_mcu7t5v0__mux2_2
X_1322_ S1END[1] S2END[5] S1END[3] W1END[1] Inst_LUT4AB_ConfigMem.Inst_frame1_bit11.Q
+ Inst_LUT4AB_ConfigMem.Inst_frame1_bit10.Q _0297_ VDD VDD VSS VSS gf180mcu_fd_sc_mcu7t5v0__mux4_1
X_1184_ _0160_ _0162_ _0165_ _0166_ Inst_LUT4AB_switch_matrix.JN2BEG5 VDD VDD VSS
+ VSS gf180mcu_fd_sc_mcu7t5v0__aoi22_1
XTAP_TAPCELL_ROW_19_286 VDD VSS gf180mcu_fd_sc_mcu7t5v0__filltie
XFILLER_24_239 VDD VDD VSS VSS gf180mcu_fd_sc_mcu7t5v0__fillcap_4
XTAP_TAPCELL_ROW_62_587 VDD VSS gf180mcu_fd_sc_mcu7t5v0__filltie
X_0968_ F G H Inst_LUT4AB_switch_matrix.M_EF Inst_LUT4AB_ConfigMem.Inst_frame4_bit6.Q
+ Inst_LUT4AB_ConfigMem.Inst_frame4_bit7.Q _0814_ VDD VDD VSS VSS gf180mcu_fd_sc_mcu7t5v0__mux4_1
X_2569_ NN4END[6] net146 VDD VDD VSS VSS gf180mcu_fd_sc_mcu7t5v0__buf_1
X_0899_ Inst_LUT4AB_ConfigMem.Inst_frame2_bit13.Q _0747_ VDD VDD VSS VSS gf180mcu_fd_sc_mcu7t5v0__clkinv_1
Xoutput220 net220 W2BEGb[1] VDD VDD VSS VSS gf180mcu_fd_sc_mcu7t5v0__buf_1
X_2638_ Inst_LUT4AB_switch_matrix.W1BEG2 net209 VDD VDD VSS VSS gf180mcu_fd_sc_mcu7t5v0__buf_1
Xoutput253 net253 WW4BEG[8] VDD VDD VSS VSS gf180mcu_fd_sc_mcu7t5v0__buf_1
Xoutput242 net242 WW4BEG[12] VDD VDD VSS VSS gf180mcu_fd_sc_mcu7t5v0__buf_1
Xoutput231 net231 W6BEG[2] VDD VDD VSS VSS gf180mcu_fd_sc_mcu7t5v0__buf_1
XTAP_TAPCELL_ROW_2_165 VDD VSS gf180mcu_fd_sc_mcu7t5v0__filltie
XTAP_TAPCELL_ROW_53_521 VDD VSS gf180mcu_fd_sc_mcu7t5v0__filltie
XFILLER_7_438 VDD VDD VSS VSS gf180mcu_fd_sc_mcu7t5v0__fill_1
XFILLER_2_165 VDD VDD VSS VSS gf180mcu_fd_sc_mcu7t5v0__fill_2
X_1940_ FrameData[29] FrameStrobe[15] Inst_LH_LUT4c_frame_config_dffesr.inst_cus_mux161_buf.A0
+ VDD VDD VSS VSS gf180mcu_fd_sc_mcu7t5v0__latq_1
X_1871_ FrameData[24] FrameStrobe[17] Inst_LD_LUT4c_frame_config_dffesr.inst_cus_mux161_buf.A7
+ VDD VDD VSS VSS gf180mcu_fd_sc_mcu7t5v0__latq_1
XTAP_TAPCELL_ROW_16_267 VDD VSS gf180mcu_fd_sc_mcu7t5v0__filltie
XFILLER_21_209 VDD VDD VSS VSS gf180mcu_fd_sc_mcu7t5v0__fill_1
X_2423_ _0000_ clknet_1_1__leaf_UserCLK_regs Inst_LH_LUT4c_frame_config_dffesr.LUT_flop
+ VDD VDD VSS VSS gf180mcu_fd_sc_mcu7t5v0__dffq_1
XPHY_EDGE_ROW_24_Left_95 VDD VSS gf180mcu_fd_sc_mcu7t5v0__endcap
XFILLER_69_489 VDD VDD VSS VSS gf180mcu_fd_sc_mcu7t5v0__fill_1
XFILLER_69_478 VDD VDD VSS VSS gf180mcu_fd_sc_mcu7t5v0__fill_2
XTAP_TAPCELL_ROW_67_624 VDD VSS gf180mcu_fd_sc_mcu7t5v0__filltie
XFILLER_56_117 VDD VDD VSS VSS gf180mcu_fd_sc_mcu7t5v0__fill_1
X_1305_ F G H Inst_LUT4AB_switch_matrix.M_EF Inst_LUT4AB_ConfigMem.Inst_frame1_bit2.Q
+ Inst_LUT4AB_ConfigMem.Inst_frame1_bit3.Q _0281_ VDD VDD VSS VSS gf180mcu_fd_sc_mcu7t5v0__mux4_1
X_2285_ FrameData[22] FrameStrobe[4] Inst_LUT4AB_ConfigMem.Inst_frame4_bit22.Q VDD
+ VDD VSS VSS gf180mcu_fd_sc_mcu7t5v0__latq_1
X_2354_ FrameData[27] FrameStrobe[2] Inst_LUT4AB_ConfigMem.Inst_frame2_bit27.Q VDD
+ VDD VSS VSS gf180mcu_fd_sc_mcu7t5v0__latq_1
X_1236_ _0215_ _0216_ VDD VDD VSS VSS gf180mcu_fd_sc_mcu7t5v0__clkinv_1
XTAP_TAPCELL_ROW_50_502 VDD VSS gf180mcu_fd_sc_mcu7t5v0__filltie
X_1167_ _0142_ _0143_ _0133_ _0132_ Inst_LUT4AB_ConfigMem.Inst_frame10_bit26.Q Inst_LUT4AB_ConfigMem.Inst_frame10_bit27.Q
+ _0150_ VDD VDD VSS VSS gf180mcu_fd_sc_mcu7t5v0__mux4_1
X_1098_ Inst_LUT4AB_ConfigMem.Inst_frame10_bit13.Q _0083_ _0735_ _0086_ VDD VDD VSS
+ VSS gf180mcu_fd_sc_mcu7t5v0__oai21_1
XTAP_TAPCELL_ROW_7_202 VDD VSS gf180mcu_fd_sc_mcu7t5v0__filltie
XFILLER_43_334 VDD VDD VSS VSS gf180mcu_fd_sc_mcu7t5v0__fillcap_16
XFILLER_28_331 VDD VDD VSS VSS gf180mcu_fd_sc_mcu7t5v0__fill_2
X_2070_ FrameData[31] FrameStrobe[11] Inst_LUT4AB_ConfigMem.Inst_frame11_bit31.Q VDD
+ VDD VSS VSS gf180mcu_fd_sc_mcu7t5v0__latq_1
XFILLER_61_142 VDD VDD VSS VSS gf180mcu_fd_sc_mcu7t5v0__fill_1
XFILLER_34_389 VDD VDD VSS VSS gf180mcu_fd_sc_mcu7t5v0__fill_1
X_1021_ N2END[4] E1END[2] E2END[4] E6END[0] Inst_LUT4AB_ConfigMem.Inst_frame2_bit6.Q
+ Inst_LUT4AB_ConfigMem.Inst_frame2_bit7.Q _0013_ VDD VDD VSS VSS gf180mcu_fd_sc_mcu7t5v0__mux4_1
X_1923_ FrameData[12] FrameStrobe[15] Inst_LG_LUT4c_frame_config_dffesr.inst_cus_mux161_buf.A2
+ VDD VDD VSS VSS gf180mcu_fd_sc_mcu7t5v0__latq_1
X_1785_ Inst_LUT4AB_ConfigMem.Inst_frame9_bit8.Q _0671_ _0689_ VDD VDD VSS VSS gf180mcu_fd_sc_mcu7t5v0__nand2_1
X_1854_ FrameData[7] FrameStrobe[17] Inst_LC_LUT4c_frame_config_dffesr.inst_cus_mux161_buf.A9
+ VDD VDD VSS VSS gf180mcu_fd_sc_mcu7t5v0__latq_1
X_2406_ FrameData[15] FrameStrobe[0] Inst_LUT4AB_ConfigMem.Inst_frame0_bit15.Q VDD
+ VDD VSS VSS gf180mcu_fd_sc_mcu7t5v0__latq_1
XFILLER_65_492 VDD VDD VSS VSS gf180mcu_fd_sc_mcu7t5v0__fill_1
XFILLER_65_470 VDD VDD VSS VSS gf180mcu_fd_sc_mcu7t5v0__fill_2
X_2337_ FrameData[10] FrameStrobe[2] Inst_LUT4AB_ConfigMem.Inst_frame2_bit10.Q VDD
+ VDD VSS VSS gf180mcu_fd_sc_mcu7t5v0__latq_1
X_2268_ FrameData[5] FrameStrobe[4] Inst_LUT4AB_ConfigMem.Inst_frame4_bit5.Q VDD VDD
+ VSS VSS gf180mcu_fd_sc_mcu7t5v0__latq_1
X_1219_ N1END[2] N2END[6] E1END[2] E2END[6] Inst_LUT4AB_ConfigMem.Inst_frame2_bit14.Q
+ Inst_LUT4AB_ConfigMem.Inst_frame2_bit15.Q _0200_ VDD VDD VSS VSS gf180mcu_fd_sc_mcu7t5v0__mux4_1
XFILLER_29_139 VDD VDD VSS VSS gf180mcu_fd_sc_mcu7t5v0__fill_1
X_2199_ FrameData[0] FrameStrobe[6] Inst_LUT4AB_ConfigMem.Inst_frame6_bit0.Q VDD VDD
+ VSS VSS gf180mcu_fd_sc_mcu7t5v0__latq_1
XFILLER_25_334 VDD VDD VSS VSS gf180mcu_fd_sc_mcu7t5v0__fillcap_4
XTAP_TAPCELL_ROW_35_395 VDD VSS gf180mcu_fd_sc_mcu7t5v0__filltie
XFILLER_0_466 VDD VDD VSS VSS gf180mcu_fd_sc_mcu7t5v0__fillcap_8
XFILLER_28_172 VDD VDD VSS VSS gf180mcu_fd_sc_mcu7t5v0__fill_2
XFILLER_16_378 VDD VDD VSS VSS gf180mcu_fd_sc_mcu7t5v0__fill_2
XFILLER_6_23 VDD VDD VSS VSS gf180mcu_fd_sc_mcu7t5v0__fill_1
XFILLER_6_34 VDD VDD VSS VSS gf180mcu_fd_sc_mcu7t5v0__fill_1
XANTENNA_5 N4END[10] VDD VDD VSS VSS gf180mcu_fd_sc_mcu7t5v0__antenna
X_1570_ N1END[0] N2END[0] E1END[0] E2END[0] Inst_LUT4AB_ConfigMem.Inst_frame3_bit22.Q
+ Inst_LUT4AB_ConfigMem.Inst_frame3_bit23.Q _0530_ VDD VDD VSS VSS gf180mcu_fd_sc_mcu7t5v0__mux4_1
X_2122_ FrameData[19] FrameStrobe[9] Inst_LUT4AB_ConfigMem.Inst_frame9_bit19.Q VDD
+ VDD VSS VSS gf180mcu_fd_sc_mcu7t5v0__latq_1
XFILLER_66_267 VDD VDD VSS VSS gf180mcu_fd_sc_mcu7t5v0__fill_2
XTAP_TAPCELL_ROW_49_498 VDD VSS gf180mcu_fd_sc_mcu7t5v0__filltie
XFILLER_47_492 VDD VDD VSS VSS gf180mcu_fd_sc_mcu7t5v0__fill_1
X_2053_ FrameData[14] FrameStrobe[11] Inst_LUT4AB_ConfigMem.Inst_frame11_bit14.Q VDD
+ VDD VSS VSS gf180mcu_fd_sc_mcu7t5v0__latq_1
XFILLER_39_448 VDD VDD VSS VSS gf180mcu_fd_sc_mcu7t5v0__fill_1
XFILLER_19_150 VDD VDD VSS VSS gf180mcu_fd_sc_mcu7t5v0__fill_2
X_1004_ Inst_LUT4AB_ConfigMem.Inst_frame1_bit30.Q W6END[1] Inst_LUT4AB_ConfigMem.Inst_frame1_bit31.Q
+ _0847_ VDD VDD VSS VSS gf180mcu_fd_sc_mcu7t5v0__oai21_1
X_1906_ FrameData[27] FrameStrobe[16] Inst_LF_LUT4c_frame_config_dffesr.inst_cus_mux161_buf.A4
+ VDD VDD VSS VSS gf180mcu_fd_sc_mcu7t5v0__latq_1
XTAP_TAPCELL_ROW_32_376 VDD VSS gf180mcu_fd_sc_mcu7t5v0__filltie
X_1837_ FrameData[22] FrameStrobe[18] Inst_LB_LUT4c_frame_config_dffesr.inst_cus_mux161_buf.A11
+ VDD VDD VSS VSS gf180mcu_fd_sc_mcu7t5v0__latq_1
X_1768_ Inst_LUT4AB_ConfigMem.Inst_frame10_bit10.Q _0671_ _0675_ VDD VDD VSS VSS gf180mcu_fd_sc_mcu7t5v0__nand2_1
XFILLER_66_39 VDD VDD VSS VSS gf180mcu_fd_sc_mcu7t5v0__fill_1
XFILLER_57_212 VDD VDD VSS VSS gf180mcu_fd_sc_mcu7t5v0__fill_1
X_1699_ _0637_ _0636_ Inst_LUT4AB_ConfigMem.Inst_frame13_bit27.Q Inst_LUT4AB_switch_matrix.EE4BEG1
+ VDD VDD VSS VSS gf180mcu_fd_sc_mcu7t5v0__mux2_2
XPHY_EDGE_ROW_11_Left_82 VDD VSS gf180mcu_fd_sc_mcu7t5v0__endcap
XFILLER_25_142 VDD VDD VSS VSS gf180mcu_fd_sc_mcu7t5v0__fillcap_4
XTAP_TAPCELL_ROW_23_310 VDD VSS gf180mcu_fd_sc_mcu7t5v0__filltie
Xoutput53 net53 FrameData_O[12] VDD VDD VSS VSS gf180mcu_fd_sc_mcu7t5v0__buf_1
Xoutput75 net75 FrameData_O[3] VDD VDD VSS VSS gf180mcu_fd_sc_mcu7t5v0__buf_1
Xoutput64 net64 FrameData_O[22] VDD VDD VSS VSS gf180mcu_fd_sc_mcu7t5v0__buf_1
Xoutput42 net42 EE4BEG[2] VDD VDD VSS VSS gf180mcu_fd_sc_mcu7t5v0__buf_1
Xoutput20 net20 E2BEGb[6] VDD VDD VSS VSS gf180mcu_fd_sc_mcu7t5v0__buf_1
Xoutput31 net31 E6BEG[7] VDD VDD VSS VSS gf180mcu_fd_sc_mcu7t5v0__buf_1
Xoutput7 net7 E2BEG[1] VDD VDD VSS VSS gf180mcu_fd_sc_mcu7t5v0__buf_1
Xoutput86 net86 FrameStrobe_O[13] VDD VDD VSS VSS gf180mcu_fd_sc_mcu7t5v0__buf_1
Xoutput97 net97 FrameStrobe_O[5] VDD VDD VSS VSS gf180mcu_fd_sc_mcu7t5v0__buf_1
X_2671_ WW4END[7] net248 VDD VDD VSS VSS gf180mcu_fd_sc_mcu7t5v0__buf_1
XFILLER_8_363 VDD VDD VSS VSS gf180mcu_fd_sc_mcu7t5v0__fill_1
X_1622_ _0575_ _0576_ VDD VDD VSS VSS gf180mcu_fd_sc_mcu7t5v0__clkinv_1
X_1484_ _0449_ _0450_ _0451_ VDD VDD VSS VSS gf180mcu_fd_sc_mcu7t5v0__nor2_1
X_1553_ _0513_ _0514_ Inst_LUT4AB_ConfigMem.Inst_frame1_bit24.Q _0515_ VDD VDD VSS
+ VSS gf180mcu_fd_sc_mcu7t5v0__mux2_2
X_2105_ FrameData[2] FrameStrobe[9] Inst_LUT4AB_ConfigMem.Inst_frame9_bit2.Q VDD VDD
+ VSS VSS gf180mcu_fd_sc_mcu7t5v0__latq_1
XTAP_TAPCELL_ROW_37_413 VDD VSS gf180mcu_fd_sc_mcu7t5v0__filltie
X_2036_ FrameData[29] FrameStrobe[12] Inst_LUT4AB_ConfigMem.Inst_frame12_bit29.Q VDD
+ VDD VSS VSS gf180mcu_fd_sc_mcu7t5v0__latq_1
XFILLER_50_454 VDD VDD VSS VSS gf180mcu_fd_sc_mcu7t5v0__fill_1
XFILLER_3_57 VDD VDD VSS VSS gf180mcu_fd_sc_mcu7t5v0__fill_1
XFILLER_67_93 VDD VDD VSS VSS gf180mcu_fd_sc_mcu7t5v0__fill_2
XFILLER_32_498 VDD VDD VSS VSS gf180mcu_fd_sc_mcu7t5v0__fill_1
X_0984_ _0713_ _0828_ Inst_LUT4AB_ConfigMem.Inst_frame4_bit1.Q _0829_ VDD VDD VSS
+ VSS gf180mcu_fd_sc_mcu7t5v0__aoi21_1
X_1536_ _0498_ _0499_ Inst_LUT4AB_ConfigMem.Inst_frame14_bit16.Q Inst_LUT4AB_switch_matrix.M_AD
+ VDD VDD VSS VSS gf180mcu_fd_sc_mcu7t5v0__mux2_2
X_2654_ W2MID[6] net225 VDD VDD VSS VSS gf180mcu_fd_sc_mcu7t5v0__buf_1
X_2585_ Inst_LUT4AB_switch_matrix.S1BEG2 net156 VDD VDD VSS VSS gf180mcu_fd_sc_mcu7t5v0__buf_1
X_1605_ NN4END[1] E2END[1] E1END[3] E6END[1] Inst_LUT4AB_ConfigMem.Inst_frame3_bit27.Q
+ Inst_LUT4AB_ConfigMem.Inst_frame3_bit26.Q _0561_ VDD VDD VSS VSS gf180mcu_fd_sc_mcu7t5v0__mux4_1
X_1398_ Inst_LUT4AB_ConfigMem.Inst_frame9_bit30.Q _0363_ _0368_ _0369_ VDD VDD VSS
+ VSS gf180mcu_fd_sc_mcu7t5v0__oai21_1
X_1467_ Inst_LUT4AB_ConfigMem.Inst_frame8_bit8.Q _0367_ _0433_ Inst_LUT4AB_ConfigMem.Inst_frame8_bit9.Q
+ _0434_ VDD VDD VSS VSS gf180mcu_fd_sc_mcu7t5v0__oai211_1
X_2019_ FrameData[12] FrameStrobe[12] Inst_LUT4AB_ConfigMem.Inst_frame12_bit12.Q VDD
+ VDD VSS VSS gf180mcu_fd_sc_mcu7t5v0__latq_1
XFILLER_58_384 VDD VDD VSS VSS gf180mcu_fd_sc_mcu7t5v0__fill_1
XTAP_TAPCELL_ROW_56_541 VDD VSS gf180mcu_fd_sc_mcu7t5v0__filltie
XTAP_TAPCELL_ROW_5_185 VDD VSS gf180mcu_fd_sc_mcu7t5v0__filltie
XFILLER_41_262 VDD VDD VSS VSS gf180mcu_fd_sc_mcu7t5v0__fillcap_16
XFILLER_26_281 VDD VDD VSS VSS gf180mcu_fd_sc_mcu7t5v0__fill_1
X_2370_ FrameData[11] FrameStrobe[1] Inst_LUT4AB_ConfigMem.Inst_frame1_bit11.Q VDD
+ VDD VSS VSS gf180mcu_fd_sc_mcu7t5v0__latq_1
X_1321_ N1END[1] N2END[5] E1END[1] E2END[5] Inst_LUT4AB_ConfigMem.Inst_frame1_bit10.Q
+ Inst_LUT4AB_ConfigMem.Inst_frame1_bit11.Q _0296_ VDD VDD VSS VSS gf180mcu_fd_sc_mcu7t5v0__mux4_1
X_1252_ _0757_ _0208_ _0229_ _0206_ _0230_ _0231_ VDD VDD VSS VSS gf180mcu_fd_sc_mcu7t5v0__aoi221_1
X_1183_ _0753_ _0163_ Inst_LUT4AB_ConfigMem.Inst_frame4_bit17.Q _0166_ VDD VDD VSS
+ VSS gf180mcu_fd_sc_mcu7t5v0__aoi21_1
XTAP_TAPCELL_ROW_19_287 VDD VSS gf180mcu_fd_sc_mcu7t5v0__filltie
XTAP_TAPCELL_ROW_62_588 VDD VSS gf180mcu_fd_sc_mcu7t5v0__filltie
X_0967_ _0709_ _0812_ _0813_ VDD VDD VSS VSS gf180mcu_fd_sc_mcu7t5v0__nand2_1
XFILLER_20_457 VDD VDD VSS VSS gf180mcu_fd_sc_mcu7t5v0__fill_2
X_2568_ NN4END[5] net145 VDD VDD VSS VSS gf180mcu_fd_sc_mcu7t5v0__buf_1
X_2499_ FrameData[20] net62 VDD VDD VSS VSS gf180mcu_fd_sc_mcu7t5v0__buf_1
X_0898_ Inst_LUT4AB_ConfigMem.Inst_frame2_bit12.Q _0746_ VDD VDD VSS VSS gf180mcu_fd_sc_mcu7t5v0__clkinv_1
XPHY_EDGE_ROW_58_Left_129 VDD VSS gf180mcu_fd_sc_mcu7t5v0__endcap
Xoutput221 net221 W2BEGb[2] VDD VDD VSS VSS gf180mcu_fd_sc_mcu7t5v0__buf_1
Xoutput210 net210 W1BEG[3] VDD VDD VSS VSS gf180mcu_fd_sc_mcu7t5v0__buf_1
X_2637_ Inst_LUT4AB_switch_matrix.W1BEG1 net208 VDD VDD VSS VSS gf180mcu_fd_sc_mcu7t5v0__buf_1
X_1519_ Inst_LUT4AB_ConfigMem.Inst_frame9_bit6.Q _0291_ _0483_ Inst_LUT4AB_ConfigMem.Inst_frame9_bit7.Q
+ _0484_ VDD VDD VSS VSS gf180mcu_fd_sc_mcu7t5v0__oai211_1
Xoutput254 net254 WW4BEG[9] VDD VDD VSS VSS gf180mcu_fd_sc_mcu7t5v0__buf_1
XPHY_EDGE_ROW_12_Right_12 VDD VSS gf180mcu_fd_sc_mcu7t5v0__endcap
Xoutput243 net243 WW4BEG[13] VDD VDD VSS VSS gf180mcu_fd_sc_mcu7t5v0__buf_1
Xoutput232 net232 W6BEG[3] VDD VDD VSS VSS gf180mcu_fd_sc_mcu7t5v0__buf_1
XFILLER_55_354 VDD VDD VSS VSS gf180mcu_fd_sc_mcu7t5v0__fill_1
XTAP_TAPCELL_ROW_2_166 VDD VSS gf180mcu_fd_sc_mcu7t5v0__filltie
XPHY_EDGE_ROW_21_Right_21 VDD VSS gf180mcu_fd_sc_mcu7t5v0__endcap
XPHY_EDGE_ROW_67_Left_138 VDD VSS gf180mcu_fd_sc_mcu7t5v0__endcap
XTAP_TAPCELL_ROW_53_522 VDD VSS gf180mcu_fd_sc_mcu7t5v0__filltie
XFILLER_11_413 VDD VDD VSS VSS gf180mcu_fd_sc_mcu7t5v0__fill_1
XPHY_EDGE_ROW_30_Right_30 VDD VSS gf180mcu_fd_sc_mcu7t5v0__endcap
XFILLER_11_468 VDD VDD VSS VSS gf180mcu_fd_sc_mcu7t5v0__fill_2
XFILLER_3_2 VDD VDD VSS VSS gf180mcu_fd_sc_mcu7t5v0__fill_2
XFILLER_2_177 VDD VDD VSS VSS gf180mcu_fd_sc_mcu7t5v0__fill_1
X_1870_ FrameData[23] FrameStrobe[17] Inst_LD_LUT4c_frame_config_dffesr.inst_cus_mux161_buf.A6
+ VDD VDD VSS VSS gf180mcu_fd_sc_mcu7t5v0__latq_1
XFILLER_69_402 VDD VDD VSS VSS gf180mcu_fd_sc_mcu7t5v0__fill_2
XFILLER_6_450 VDD VDD VSS VSS gf180mcu_fd_sc_mcu7t5v0__fillcap_4
XFILLER_6_494 VDD VDD VSS VSS gf180mcu_fd_sc_mcu7t5v0__fillcap_4
X_2353_ FrameData[26] FrameStrobe[2] Inst_LUT4AB_ConfigMem.Inst_frame2_bit26.Q VDD
+ VDD VSS VSS gf180mcu_fd_sc_mcu7t5v0__latq_1
X_2422_ FrameData[31] FrameStrobe[0] Inst_LUT4AB_ConfigMem.Inst_frame0_bit31.Q VDD
+ VDD VSS VSS gf180mcu_fd_sc_mcu7t5v0__latq_1
X_2284_ FrameData[21] FrameStrobe[4] Inst_LUT4AB_ConfigMem.Inst_frame4_bit21.Q VDD
+ VDD VSS VSS gf180mcu_fd_sc_mcu7t5v0__latq_1
X_1166_ _0148_ _0149_ VDD VDD VSS VSS gf180mcu_fd_sc_mcu7t5v0__clkinv_1
X_1304_ A B D E Inst_LUT4AB_ConfigMem.Inst_frame1_bit2.Q Inst_LUT4AB_ConfigMem.Inst_frame1_bit3.Q
+ _0280_ VDD VDD VSS VSS gf180mcu_fd_sc_mcu7t5v0__mux4_1
X_1235_ NN4END[2] E2END[1] S2END[1] W2END[1] Inst_LUT4AB_ConfigMem.Inst_frame5_bit16.Q
+ Inst_LUT4AB_ConfigMem.Inst_frame5_bit17.Q _0215_ VDD VDD VSS VSS gf180mcu_fd_sc_mcu7t5v0__mux4_1
XTAP_TAPCELL_ROW_50_503 VDD VSS gf180mcu_fd_sc_mcu7t5v0__filltie
X_1097_ Inst_LUT4AB_ConfigMem.Inst_frame10_bit12.Q _0830_ _0084_ _0085_ VDD VDD VSS
+ VSS gf180mcu_fd_sc_mcu7t5v0__aoi21_1
X_1999_ FrameData[24] FrameStrobe[13] Inst_LUT4AB_ConfigMem.Inst_frame13_bit24.Q VDD
+ VDD VSS VSS gf180mcu_fd_sc_mcu7t5v0__latq_1
XTAP_TAPCELL_ROW_7_203 VDD VSS gf180mcu_fd_sc_mcu7t5v0__filltie
XFILLER_68_490 VDD VDD VSS VSS gf180mcu_fd_sc_mcu7t5v0__fill_2
XFILLER_28_387 VDD VDD VSS VSS gf180mcu_fd_sc_mcu7t5v0__fillcap_8
XFILLER_18_43 VDD VDD VSS VSS gf180mcu_fd_sc_mcu7t5v0__fill_1
XFILLER_11_276 VDD VDD VSS VSS gf180mcu_fd_sc_mcu7t5v0__fillcap_4
XFILLER_59_61 VDD VDD VSS VSS gf180mcu_fd_sc_mcu7t5v0__fill_1
XFILLER_66_438 VDD VDD VSS VSS gf180mcu_fd_sc_mcu7t5v0__fill_2
XFILLER_59_72 VDD VDD VSS VSS gf180mcu_fd_sc_mcu7t5v0__fill_2
XFILLER_38_107 VDD VDD VSS VSS gf180mcu_fd_sc_mcu7t5v0__fill_2
X_1020_ _0719_ _0011_ _0012_ VDD VDD VSS VSS gf180mcu_fd_sc_mcu7t5v0__nor2_1
X_1922_ FrameData[11] FrameStrobe[15] Inst_LG_LUT4c_frame_config_dffesr.inst_cus_mux161_buf.A1
+ VDD VDD VSS VSS gf180mcu_fd_sc_mcu7t5v0__latq_1
X_1784_ Inst_LD_LUT4c_frame_config_dffesr.LUT_flop _0687_ _0688_ VDD VDD VSS VSS gf180mcu_fd_sc_mcu7t5v0__nand2_1
X_1853_ FrameData[6] FrameStrobe[17] Inst_LC_LUT4c_frame_config_dffesr.inst_cus_mux161_buf.A8
+ VDD VDD VSS VSS gf180mcu_fd_sc_mcu7t5v0__latq_1
XFILLER_29_118 VDD VDD VSS VSS gf180mcu_fd_sc_mcu7t5v0__fill_1
X_2336_ FrameData[9] FrameStrobe[2] Inst_LUT4AB_ConfigMem.Inst_frame2_bit9.Q VDD VDD
+ VSS VSS gf180mcu_fd_sc_mcu7t5v0__latq_1
X_2405_ FrameData[14] FrameStrobe[0] Inst_LUT4AB_ConfigMem.Inst_frame0_bit14.Q VDD
+ VDD VSS VSS gf180mcu_fd_sc_mcu7t5v0__latq_1
X_2267_ FrameData[4] FrameStrobe[4] Inst_LUT4AB_ConfigMem.Inst_frame4_bit4.Q VDD VDD
+ VSS VSS gf180mcu_fd_sc_mcu7t5v0__latq_1
X_1218_ Inst_LUT4AB_ConfigMem.Inst_frame2_bit16.Q _0198_ _0761_ _0199_ VDD VDD VSS
+ VSS gf180mcu_fd_sc_mcu7t5v0__aoi21_1
X_2198_ FrameData[31] FrameStrobe[7] Inst_LUT4AB_ConfigMem.Inst_frame7_bit31.Q VDD
+ VDD VSS VSS gf180mcu_fd_sc_mcu7t5v0__latq_1