*SPEF "ieee 1481-1999"
*DESIGN "N_term_SRAM"
*DATE "22:52:14 Friday December 05, 2025"
*VENDOR "The OpenROAD Project"
*PROGRAM "OpenROAD"
*VERSION "341650e72dad0dc8571822ff8c5d9c5e365327f7"
*DESIGN_FLOW "NAME_SCOPE LOCAL" "PIN_CAP NONE"
*DIVIDER /
*DELIMITER :
*BUS_DELIMITER []
*T_UNIT 1 NS
*C_UNIT 1 PF
*R_UNIT 1 OHM
*L_UNIT 1 HENRY

*NAME_MAP
*1 FrameData[0]
*2 FrameData[10]
*3 FrameData[11]
*4 FrameData[12]
*5 FrameData[13]
*6 FrameData[14]
*7 FrameData[15]
*8 FrameData[16]
*9 FrameData[17]
*10 FrameData[18]
*11 FrameData[19]
*12 FrameData[1]
*13 FrameData[20]
*14 FrameData[21]
*15 FrameData[22]
*16 FrameData[23]
*17 FrameData[24]
*18 FrameData[25]
*19 FrameData[26]
*20 FrameData[27]
*21 FrameData[28]
*22 FrameData[29]
*23 FrameData[2]
*24 FrameData[30]
*25 FrameData[31]
*26 FrameData[3]
*27 FrameData[4]
*28 FrameData[5]
*29 FrameData[6]
*30 FrameData[7]
*31 FrameData[8]
*32 FrameData[9]
*33 FrameData_O[0]
*34 FrameData_O[10]
*35 FrameData_O[11]
*36 FrameData_O[12]
*37 FrameData_O[13]
*38 FrameData_O[14]
*39 FrameData_O[15]
*40 FrameData_O[16]
*41 FrameData_O[17]
*42 FrameData_O[18]
*43 FrameData_O[19]
*44 FrameData_O[1]
*45 FrameData_O[20]
*46 FrameData_O[21]
*47 FrameData_O[22]
*48 FrameData_O[23]
*49 FrameData_O[24]
*50 FrameData_O[25]
*51 FrameData_O[26]
*52 FrameData_O[27]
*53 FrameData_O[28]
*54 FrameData_O[29]
*55 FrameData_O[2]
*56 FrameData_O[30]
*57 FrameData_O[31]
*58 FrameData_O[3]
*59 FrameData_O[4]
*60 FrameData_O[5]
*61 FrameData_O[6]
*62 FrameData_O[7]
*63 FrameData_O[8]
*64 FrameData_O[9]
*65 FrameStrobe[0]
*66 FrameStrobe[10]
*67 FrameStrobe[11]
*68 FrameStrobe[12]
*69 FrameStrobe[13]
*70 FrameStrobe[14]
*71 FrameStrobe[15]
*72 FrameStrobe[16]
*73 FrameStrobe[17]
*74 FrameStrobe[18]
*75 FrameStrobe[19]
*76 FrameStrobe[1]
*77 FrameStrobe[2]
*78 FrameStrobe[3]
*79 FrameStrobe[4]
*80 FrameStrobe[5]
*81 FrameStrobe[6]
*82 FrameStrobe[7]
*83 FrameStrobe[8]
*84 FrameStrobe[9]
*85 FrameStrobe_O[0]
*86 FrameStrobe_O[10]
*87 FrameStrobe_O[11]
*88 FrameStrobe_O[12]
*89 FrameStrobe_O[13]
*90 FrameStrobe_O[14]
*91 FrameStrobe_O[15]
*92 FrameStrobe_O[16]
*93 FrameStrobe_O[17]
*94 FrameStrobe_O[18]
*95 FrameStrobe_O[19]
*96 FrameStrobe_O[1]
*97 FrameStrobe_O[2]
*98 FrameStrobe_O[3]
*99 FrameStrobe_O[4]
*100 FrameStrobe_O[5]
*101 FrameStrobe_O[6]
*102 FrameStrobe_O[7]
*103 FrameStrobe_O[8]
*104 FrameStrobe_O[9]
*105 N1END[0]
*106 N1END[1]
*107 N1END[2]
*108 N1END[3]
*109 N2END[0]
*110 N2END[1]
*111 N2END[2]
*112 N2END[3]
*113 N2END[4]
*114 N2END[5]
*115 N2END[6]
*116 N2END[7]
*117 N2MID[0]
*118 N2MID[1]
*119 N2MID[2]
*120 N2MID[3]
*121 N2MID[4]
*122 N2MID[5]
*123 N2MID[6]
*124 N2MID[7]
*125 N4END[0]
*126 N4END[10]
*127 N4END[11]
*128 N4END[12]
*129 N4END[13]
*130 N4END[14]
*131 N4END[15]
*132 N4END[1]
*133 N4END[2]
*134 N4END[3]
*135 N4END[4]
*136 N4END[5]
*137 N4END[6]
*138 N4END[7]
*139 N4END[8]
*140 N4END[9]
*141 S1BEG[0]
*142 S1BEG[1]
*143 S1BEG[2]
*144 S1BEG[3]
*145 S2BEG[0]
*146 S2BEG[1]
*147 S2BEG[2]
*148 S2BEG[3]
*149 S2BEG[4]
*150 S2BEG[5]
*151 S2BEG[6]
*152 S2BEG[7]
*153 S2BEGb[0]
*154 S2BEGb[1]
*155 S2BEGb[2]
*156 S2BEGb[3]
*157 S2BEGb[4]
*158 S2BEGb[5]
*159 S2BEGb[6]
*160 S2BEGb[7]
*161 S4BEG[0]
*162 S4BEG[10]
*163 S4BEG[11]
*164 S4BEG[12]
*165 S4BEG[13]
*166 S4BEG[14]
*167 S4BEG[15]
*168 S4BEG[1]
*169 S4BEG[2]
*170 S4BEG[3]
*171 S4BEG[4]
*172 S4BEG[5]
*173 S4BEG[6]
*174 S4BEG[7]
*175 S4BEG[8]
*176 S4BEG[9]
*177 UserCLK
*178 UserCLKo
*181 net1
*182 net10
*183 net11
*184 net12
*185 net13
*186 net14
*187 net15
*188 net16
*189 net17
*190 net18
*191 net19
*192 net2
*193 net20
*194 net21
*195 net22
*196 net23
*197 net24
*198 net25
*199 net26
*200 net27
*201 net28
*202 net29
*203 net3
*204 net30
*205 net31
*206 net32
*207 net33
*208 net34
*209 net35
*210 net36
*211 net37
*212 net38
*213 net39
*214 net4
*215 net40
*216 net41
*217 net42
*218 net43
*219 net44
*220 net45
*221 net46
*222 net47
*223 net48
*224 net49
*225 net5
*226 net50
*227 net51
*228 net52
*229 net53
*230 net54
*231 net55
*232 net56
*233 net57
*234 net58
*235 net59
*236 net6
*237 net60
*238 net61
*239 net62
*240 net63
*241 net64
*242 net65
*243 net66
*244 net67
*245 net68
*246 net69
*247 net7
*248 net70
*249 net71
*250 net72
*251 net73
*252 net74
*253 net75
*254 net76
*255 net77
*256 net78
*257 net79
*258 net8
*259 net80
*260 net81
*261 net82
*262 net83
*263 net84
*264 net85
*265 net86
*266 net87
*267 net88
*268 net89
*269 net9
*270 FILLER_0_104
*271 FILLER_0_138
*272 FILLER_0_140
*273 FILLER_0_169
*274 FILLER_0_2
*275 FILLER_0_200
*276 FILLER_0_220
*277 FILLER_0_240
*278 FILLER_0_36
*279 FILLER_0_70
*280 FILLER_10_101
*281 FILLER_10_107
*282 FILLER_10_123
*283 FILLER_10_132
*284 FILLER_10_140
*285 FILLER_10_144
*286 FILLER_10_154
*287 FILLER_10_170
*288 FILLER_10_174
*289 FILLER_10_177
*290 FILLER_10_2
*291 FILLER_10_209
*292 FILLER_10_225
*293 FILLER_10_229
*294 FILLER_10_247
*295 FILLER_10_34
*296 FILLER_10_37
*297 FILLER_10_69
*298 FILLER_10_93
*299 FILLER_11_104
*300 FILLER_11_120
*301 FILLER_11_132
*302 FILLER_11_142
*303 FILLER_11_152
*304 FILLER_11_184
*305 FILLER_11_2
*306 FILLER_11_200
*307 FILLER_11_208
*308 FILLER_11_212
*309 FILLER_11_220
*310 FILLER_11_224
*311 FILLER_11_226
*312 FILLER_11_66
*313 FILLER_11_72
*314 FILLER_12_101
*315 FILLER_12_107
*316 FILLER_12_123
*317 FILLER_12_131
*318 FILLER_12_141
*319 FILLER_12_151
*320 FILLER_12_167
*321 FILLER_12_177
*322 FILLER_12_2
*323 FILLER_12_209
*324 FILLER_12_225
*325 FILLER_12_229
*326 FILLER_12_247
*327 FILLER_12_34
*328 FILLER_12_37
*329 FILLER_13_104
*330 FILLER_13_112
*331 FILLER_13_138
*332 FILLER_13_142
*333 FILLER_13_152
*334 FILLER_13_184
*335 FILLER_13_2
*336 FILLER_13_200
*337 FILLER_13_208
*338 FILLER_13_212
*339 FILLER_13_66
*340 FILLER_13_72
*341 FILLER_14_101
*342 FILLER_14_107
*343 FILLER_14_131
*344 FILLER_14_157
*345 FILLER_14_173
*346 FILLER_14_177
*347 FILLER_14_193
*348 FILLER_14_2
*349 FILLER_14_209
*350 FILLER_14_247
*351 FILLER_14_34
*352 FILLER_14_37
*353 FILLER_14_53
*354 FILLER_14_61
*355 FILLER_14_77
*356 FILLER_14_85
*357 FILLER_15_10
*358 FILLER_15_104
*359 FILLER_15_146
*360 FILLER_15_169
*361 FILLER_15_2
*362 FILLER_15_200
*363 FILLER_15_206
*364 FILLER_15_235
*365 FILLER_15_237
*366 FILLER_15_240
*367 FILLER_15_242
*368 FILLER_15_257
*369 FILLER_15_265
*370 FILLER_15_36
*371 FILLER_15_65
*372 FILLER_15_67
*373 FILLER_15_70
*374 FILLER_1_142
*375 FILLER_1_2
*376 FILLER_1_207
*377 FILLER_1_209
*378 FILLER_1_226
*379 FILLER_1_66
*380 FILLER_1_72
*381 FILLER_2_107
*382 FILLER_2_2
*383 FILLER_2_227
*384 FILLER_2_247
*385 FILLER_2_34
*386 FILLER_2_37
*387 FILLER_2_45
*388 FILLER_2_49
*389 FILLER_2_51
*390 FILLER_2_68
*391 FILLER_2_72
*392 FILLER_3_150
*393 FILLER_3_2
*394 FILLER_3_207
*395 FILLER_3_209
*396 FILLER_3_220
*397 FILLER_3_224
*398 FILLER_3_226
*399 FILLER_3_66
*400 FILLER_3_72
*401 FILLER_3_76
*402 FILLER_3_86
*403 FILLER_3_94
*404 FILLER_4_107
*405 FILLER_4_145
*406 FILLER_4_154
*407 FILLER_4_156
*408 FILLER_4_171
*409 FILLER_4_2
*410 FILLER_4_221
*411 FILLER_4_237
*412 FILLER_4_247
*413 FILLER_4_34
*414 FILLER_4_37
*415 FILLER_4_69
*416 FILLER_4_85
*417 FILLER_4_94
*418 FILLER_4_96
*419 FILLER_5_104
*420 FILLER_5_112
*421 FILLER_5_114
*422 FILLER_5_123
*423 FILLER_5_142
*424 FILLER_5_168
*425 FILLER_5_2
*426 FILLER_5_205
*427 FILLER_5_209
*428 FILLER_5_220
*429 FILLER_5_236
*430 FILLER_5_240
*431 FILLER_5_66
*432 FILLER_5_72
*433 FILLER_6_101
*434 FILLER_6_107
*435 FILLER_6_115
*436 FILLER_6_135
*437 FILLER_6_147
*438 FILLER_6_177
*439 FILLER_6_194
*440 FILLER_6_2
*441 FILLER_6_202
*442 FILLER_6_206
*443 FILLER_6_216
*444 FILLER_6_232
*445 FILLER_6_236
*446 FILLER_6_34
*447 FILLER_6_37
*448 FILLER_7_104
*449 FILLER_7_112
*450 FILLER_7_116
*451 FILLER_7_126
*452 FILLER_7_130
*453 FILLER_7_139
*454 FILLER_7_142
*455 FILLER_7_151
*456 FILLER_7_160
*457 FILLER_7_164
*458 FILLER_7_182
*459 FILLER_7_190
*460 FILLER_7_2
*461 FILLER_7_200
*462 FILLER_7_208
*463 FILLER_7_212
*464 FILLER_7_221
*465 FILLER_7_229
*466 FILLER_7_66
*467 FILLER_7_72
*468 FILLER_8_107
*469 FILLER_8_131
*470 FILLER_8_147
*471 FILLER_8_151
*472 FILLER_8_161
*473 FILLER_8_170
*474 FILLER_8_174
*475 FILLER_8_177
*476 FILLER_8_181
*477 FILLER_8_183
*478 FILLER_8_192
*479 FILLER_8_2
*480 FILLER_8_204
*481 FILLER_8_236
*482 FILLER_8_244
*483 FILLER_8_34
*484 FILLER_8_37
*485 FILLER_8_69
*486 FILLER_8_77
*487 FILLER_8_89
*488 FILLER_9_104
*489 FILLER_9_108
*490 FILLER_9_118
*491 FILLER_9_120
*492 FILLER_9_129
*493 FILLER_9_139
*494 FILLER_9_142
*495 FILLER_9_152
*496 FILLER_9_160
*497 FILLER_9_162
*498 FILLER_9_187
*499 FILLER_9_195
*500 FILLER_9_2
*501 FILLER_9_205
*502 FILLER_9_209
*503 FILLER_9_212
*504 FILLER_9_228
*505 FILLER_9_230
*506 FILLER_9_239
*507 FILLER_9_66
*508 FILLER_9_72
*509 PHY_EDGE_ROW_0_Left_16
*510 PHY_EDGE_ROW_0_Right_0
*511 PHY_EDGE_ROW_10_Left_26
*512 PHY_EDGE_ROW_10_Right_10
*513 PHY_EDGE_ROW_11_Left_27
*514 PHY_EDGE_ROW_11_Right_11
*515 PHY_EDGE_ROW_12_Left_28
*516 PHY_EDGE_ROW_12_Right_12
*517 PHY_EDGE_ROW_13_Left_29
*518 PHY_EDGE_ROW_13_Right_13
*519 PHY_EDGE_ROW_14_Left_30
*520 PHY_EDGE_ROW_14_Right_14
*521 PHY_EDGE_ROW_15_Left_31
*522 PHY_EDGE_ROW_15_Right_15
*523 PHY_EDGE_ROW_1_Left_17
*524 PHY_EDGE_ROW_1_Right_1
*525 PHY_EDGE_ROW_2_Left_18
*526 PHY_EDGE_ROW_2_Right_2
*527 PHY_EDGE_ROW_3_Left_19
*528 PHY_EDGE_ROW_3_Right_3
*529 PHY_EDGE_ROW_4_Left_20
*530 PHY_EDGE_ROW_4_Right_4
*531 PHY_EDGE_ROW_5_Left_21
*532 PHY_EDGE_ROW_5_Right_5
*533 PHY_EDGE_ROW_6_Left_22
*534 PHY_EDGE_ROW_6_Right_6
*535 PHY_EDGE_ROW_7_Left_23
*536 PHY_EDGE_ROW_7_Right_7
*537 PHY_EDGE_ROW_8_Left_24
*538 PHY_EDGE_ROW_8_Right_8
*539 PHY_EDGE_ROW_9_Left_25
*540 PHY_EDGE_ROW_9_Right_9
*541 TAP_TAPCELL_ROW_0_32
*542 TAP_TAPCELL_ROW_0_33
*543 TAP_TAPCELL_ROW_0_34
*544 TAP_TAPCELL_ROW_0_35
*545 TAP_TAPCELL_ROW_0_36
*546 TAP_TAPCELL_ROW_0_37
*547 TAP_TAPCELL_ROW_0_38
*548 TAP_TAPCELL_ROW_10_70
*549 TAP_TAPCELL_ROW_10_71
*550 TAP_TAPCELL_ROW_10_72
*551 TAP_TAPCELL_ROW_10_73
*552 TAP_TAPCELL_ROW_11_74
*553 TAP_TAPCELL_ROW_11_75
*554 TAP_TAPCELL_ROW_11_76
*555 TAP_TAPCELL_ROW_12_77
*556 TAP_TAPCELL_ROW_12_78
*557 TAP_TAPCELL_ROW_12_79
*558 TAP_TAPCELL_ROW_12_80
*559 TAP_TAPCELL_ROW_13_81
*560 TAP_TAPCELL_ROW_13_82
*561 TAP_TAPCELL_ROW_13_83
*562 TAP_TAPCELL_ROW_14_84
*563 TAP_TAPCELL_ROW_14_85
*564 TAP_TAPCELL_ROW_14_86
*565 TAP_TAPCELL_ROW_14_87
*566 TAP_TAPCELL_ROW_15_88
*567 TAP_TAPCELL_ROW_15_89
*568 TAP_TAPCELL_ROW_15_90
*569 TAP_TAPCELL_ROW_15_91
*570 TAP_TAPCELL_ROW_15_92
*571 TAP_TAPCELL_ROW_15_93
*572 TAP_TAPCELL_ROW_15_94
*573 TAP_TAPCELL_ROW_1_39
*574 TAP_TAPCELL_ROW_1_40
*575 TAP_TAPCELL_ROW_1_41
*576 TAP_TAPCELL_ROW_2_42
*577 TAP_TAPCELL_ROW_2_43
*578 TAP_TAPCELL_ROW_2_44
*579 TAP_TAPCELL_ROW_2_45
*580 TAP_TAPCELL_ROW_3_46
*581 TAP_TAPCELL_ROW_3_47
*582 TAP_TAPCELL_ROW_3_48
*583 TAP_TAPCELL_ROW_4_49
*584 TAP_TAPCELL_ROW_4_50
*585 TAP_TAPCELL_ROW_4_51
*586 TAP_TAPCELL_ROW_4_52
*587 TAP_TAPCELL_ROW_5_53
*588 TAP_TAPCELL_ROW_5_54
*589 TAP_TAPCELL_ROW_5_55
*590 TAP_TAPCELL_ROW_6_56
*591 TAP_TAPCELL_ROW_6_57
*592 TAP_TAPCELL_ROW_6_58
*593 TAP_TAPCELL_ROW_6_59
*594 TAP_TAPCELL_ROW_7_60
*595 TAP_TAPCELL_ROW_7_61
*596 TAP_TAPCELL_ROW_7_62
*597 TAP_TAPCELL_ROW_8_63
*598 TAP_TAPCELL_ROW_8_64
*599 TAP_TAPCELL_ROW_8_65
*600 TAP_TAPCELL_ROW_8_66
*601 TAP_TAPCELL_ROW_9_67
*602 TAP_TAPCELL_ROW_9_68
*603 TAP_TAPCELL_ROW_9_69
*604 _00_
*605 _01_
*606 _02_
*607 _03_
*608 _04_
*609 _05_
*610 _06_
*611 _07_
*612 _08_
*613 _09_
*614 _10_
*615 _11_
*616 _12_
*617 _13_
*618 _14_
*619 _15_
*620 _16_
*621 _17_
*622 _18_
*623 _19_
*624 _20_
*625 _21_
*626 _22_
*627 _23_
*628 _24_
*629 _25_
*630 _26_
*631 _27_
*632 _28_
*633 _29_
*634 _30_
*635 _31_
*636 _32_
*637 _33_
*638 _34_
*639 _35_
*640 _36_
*641 _37_
*642 _38_
*643 _39_
*644 _40_
*645 _41_
*646 _42_
*647 _43_
*648 _44_
*649 _45_
*650 _46_
*651 _47_
*652 _48_
*653 _49_
*654 _50_
*655 _51_
*656 _52_
*657 _53_
*658 _54_
*659 _55_
*660 _56_
*661 _57_
*662 _58_
*663 _59_
*664 _60_
*665 _61_
*666 _62_
*667 _63_
*668 _64_
*669 _65_
*670 _66_
*671 _67_
*672 _68_
*673 _69_
*674 _70_
*675 _71_
*676 _72_
*677 _73_
*678 _74_
*679 _75_
*680 _76_
*681 _77_
*682 _78_
*683 _79_
*684 _80_
*685 _81_
*686 _82_
*687 _83_
*688 _84_
*689 _85_
*690 _86_
*691 _87_
*692 _88_
*693 output1
*694 output10
*695 output11
*696 output12
*697 output13
*698 output14
*699 output15
*700 output16
*701 output17
*702 output18
*703 output19
*704 output2
*705 output20
*706 output21
*707 output22
*708 output23
*709 output24
*710 output25
*711 output26
*712 output27
*713 output28
*714 output29
*715 output3
*716 output30
*717 output31
*718 output32
*719 output33
*720 output34
*721 output35
*722 output36
*723 output37
*724 output38
*725 output39
*726 output4
*727 output40
*728 output41
*729 output42
*730 output43
*731 output44
*732 output45
*733 output46
*734 output47
*735 output48
*736 output49
*737 output5
*738 output50
*739 output51
*740 output52
*741 output53
*742 output54
*743 output55
*744 output56
*745 output57
*746 output58
*747 output59
*748 output6
*749 output60
*750 output61
*751 output62
*752 output63
*753 output64
*754 output65
*755 output66
*756 output67
*757 output68
*758 output69
*759 output7
*760 output70
*761 output71
*762 output72
*763 output73
*764 output74
*765 output75
*766 output76
*767 output77
*768 output78
*769 output79
*770 output8
*771 output80
*772 output81
*773 output82
*774 output83
*775 output84
*776 output85
*777 output86
*778 output87
*779 output88
*780 output89
*781 output9

*PORTS
FrameData[0] I
FrameData[10] I
FrameData[11] I
FrameData[12] I
FrameData[13] I
FrameData[14] I
FrameData[15] I
FrameData[16] I
FrameData[17] I
FrameData[18] I
FrameData[19] I
FrameData[1] I
FrameData[20] I
FrameData[21] I
FrameData[22] I
FrameData[23] I
FrameData[24] I
FrameData[25] I
FrameData[26] I
FrameData[27] I
FrameData[28] I
FrameData[29] I
FrameData[2] I
FrameData[30] I
FrameData[31] I
FrameData[3] I
FrameData[4] I
FrameData[5] I
FrameData[6] I
FrameData[7] I
FrameData[8] I
FrameData[9] I
FrameData_O[0] O
FrameData_O[10] O
FrameData_O[11] O
FrameData_O[12] O
FrameData_O[13] O
FrameData_O[14] O
FrameData_O[15] O
FrameData_O[16] O
FrameData_O[17] O
FrameData_O[18] O
FrameData_O[19] O
FrameData_O[1] O
FrameData_O[20] O
FrameData_O[21] O
FrameData_O[22] O
FrameData_O[23] O
FrameData_O[24] O
FrameData_O[25] O
FrameData_O[26] O
FrameData_O[27] O
FrameData_O[28] O
FrameData_O[29] O
FrameData_O[2] O
FrameData_O[30] O
FrameData_O[31] O
FrameData_O[3] O
FrameData_O[4] O
FrameData_O[5] O
FrameData_O[6] O
FrameData_O[7] O
FrameData_O[8] O
FrameData_O[9] O
FrameStrobe[0] I
FrameStrobe[10] I
FrameStrobe[11] I
FrameStrobe[12] I
FrameStrobe[13] I
FrameStrobe[14] I
FrameStrobe[15] I
FrameStrobe[16] I
FrameStrobe[17] I
FrameStrobe[18] I
FrameStrobe[19] I
FrameStrobe[1] I
FrameStrobe[2] I
FrameStrobe[3] I
FrameStrobe[4] I
FrameStrobe[5] I
FrameStrobe[6] I
FrameStrobe[7] I
FrameStrobe[8] I
FrameStrobe[9] I
FrameStrobe_O[0] O
FrameStrobe_O[10] O
FrameStrobe_O[11] O
FrameStrobe_O[12] O
FrameStrobe_O[13] O
FrameStrobe_O[14] O
FrameStrobe_O[15] O
FrameStrobe_O[16] O
FrameStrobe_O[17] O
FrameStrobe_O[18] O
FrameStrobe_O[19] O
FrameStrobe_O[1] O
FrameStrobe_O[2] O
FrameStrobe_O[3] O
FrameStrobe_O[4] O
FrameStrobe_O[5] O
FrameStrobe_O[6] O
FrameStrobe_O[7] O
FrameStrobe_O[8] O
FrameStrobe_O[9] O
N1END[0] I
N1END[1] I
N1END[2] I
N1END[3] I
N2END[0] I
N2END[1] I
N2END[2] I
N2END[3] I
N2END[4] I
N2END[5] I
N2END[6] I
N2END[7] I
N2MID[0] I
N2MID[1] I
N2MID[2] I
N2MID[3] I
N2MID[4] I
N2MID[5] I
N2MID[6] I
N2MID[7] I
N4END[0] I
N4END[10] I
N4END[11] I
N4END[12] I
N4END[13] I
N4END[14] I
N4END[15] I
N4END[1] I
N4END[2] I
N4END[3] I
N4END[4] I
N4END[5] I
N4END[6] I
N4END[7] I
N4END[8] I
N4END[9] I
S1BEG[0] O
S1BEG[1] O
S1BEG[2] O
S1BEG[3] O
S2BEG[0] O
S2BEG[1] O
S2BEG[2] O
S2BEG[3] O
S2BEG[4] O
S2BEG[5] O
S2BEG[6] O
S2BEG[7] O
S2BEGb[0] O
S2BEGb[1] O
S2BEGb[2] O
S2BEGb[3] O
S2BEGb[4] O
S2BEGb[5] O
S2BEGb[6] O
S2BEGb[7] O
S4BEG[0] O
S4BEG[10] O
S4BEG[11] O
S4BEG[12] O
S4BEG[13] O
S4BEG[14] O
S4BEG[15] O
S4BEG[1] O
S4BEG[2] O
S4BEG[3] O
S4BEG[4] O
S4BEG[5] O
S4BEG[6] O
S4BEG[7] O
S4BEG[8] O
S4BEG[9] O
UserCLK I
UserCLKo O

*D_NET *1 0.0107602
*CONN
*P FrameData[0] I
*I *604:I I *D gf180mcu_fd_sc_mcu7t5v0__buf_2
*CAP
1 FrameData[0] 0.00286487
2 *604:I 0.00286487
3 *604:I *658:I 0
4 *604:I *659:I 0.000163265
5 *604:I *662:I 0.000201499
6 *604:I *664:I 0.00199769
7 *604:I *681:I 2.01852e-05
8 *604:I *683:I 0.000257625
9 *604:I *693:I 8.1598e-06
10 *604:I *741:I 0
11 *604:I *743:I 8.76262e-05
12 *604:I *747:I 4.3749e-05
13 *604:I *750:I 0.000345688
14 *604:I *751:I 1.12327e-05
15 *604:I *774:I 0.00116744
16 *604:I *12:11 0.000427809
17 *604:I *23:15 0.000208576
18 *604:I *27:11 8.99532e-05
19 *604:I *30:23 0
*RES
1 FrameData[0] *604:I 45.196 
*END

*D_NET *2 0.0143643
*CONN
*P FrameData[10] I
*I *614:I I *D gf180mcu_fd_sc_mcu7t5v0__buf_2
*CAP
1 FrameData[10] 0.00193709
2 *614:I 0.00193709
3 *614:I *613:I 0.000802546
4 *614:I *666:I 0.000728482
5 *614:I *704:I 1.19584e-05
6 *614:I *745:I 0.00632739
7 *614:I *3:19 5.73353e-05
8 *614:I *4:23 0
9 *614:I *132:25 0.000183012
10 *614:I *204:22 0.000194511
11 *614:I *206:20 0.00218486
*RES
1 FrameData[10] *614:I 39.524 
*END

*D_NET *3 0.0212559
*CONN
*P FrameData[11] I
*I *615:I I *D gf180mcu_fd_sc_mcu7t5v0__buf_2
*CAP
1 FrameData[11] 0.00144286
2 *615:I 0.00114973
3 *3:19 0.00259259
4 *615:I *610:I 0.00256113
5 *615:I *617:I 0
6 *615:I *618:I 1.77406e-05
7 *615:I *620:I 0
8 *615:I *643:I 0
9 *615:I *644:I 0.000127661
10 *615:I *667:I 0.00024074
11 *615:I *676:I 1.23858e-05
12 *615:I *683:I 1.84483e-05
13 *615:I *30:23 0.000350192
14 *615:I *113:21 0.00031223
15 *615:I *138:21 0.000776631
16 *3:19 *621:I 0.000204966
17 *3:19 *622:I 0.00710046
18 *3:19 *623:I 0.00395693
19 *3:19 *739:I 0.00028351
20 *3:19 *4:23 5.03679e-05
21 *3:19 *28:11 0
22 *614:I *3:19 5.73353e-05
*RES
1 FrameData[11] *3:19 45.376 
2 *3:19 *615:I 25.564 
*END

*D_NET *4 0.017766
*CONN
*P FrameData[12] I
*I *616:I I *D gf180mcu_fd_sc_mcu7t5v0__buf_2
*CAP
1 FrameData[12] 0.00204544
2 *616:I 0
3 *4:23 0.00204544
4 *4:23 *610:I 0.000749404
5 *4:23 *617:I 0.000712115
6 *4:23 *619:I 0.00332979
7 *4:23 *666:I 0.0007798
8 *4:23 *667:I 0.00104796
9 *4:23 *672:I 0.00490619
10 *4:23 *674:I 0.00158811
11 *4:23 *30:23 0.00021758
12 *4:23 *125:13 0.000199551
13 *4:23 *134:23 9.42772e-05
14 *614:I *4:23 0
15 *3:19 *4:23 5.03679e-05
*RES
1 FrameData[12] *4:23 48.704 
2 *4:23 *616:I 4.5 
*END

*D_NET *5 0.00894114
*CONN
*P FrameData[13] I
*I *617:I I *D gf180mcu_fd_sc_mcu7t5v0__buf_2
*CAP
1 FrameData[13] 0.00199926
2 *617:I 0.00199926
3 *617:I *618:I 0.00133446
4 *617:I *667:I 0.000828035
5 *617:I *683:I 0.000922115
6 *617:I *753:I 0
7 *617:I *763:I 7.5013e-05
8 *617:I *135:21 0.00107089
9 *617:I *200:28 0
10 *615:I *617:I 0
11 *4:23 *617:I 0.000712115
*RES
1 FrameData[13] *617:I 37.756 
*END

*D_NET *6 0.00834578
*CONN
*P FrameData[14] I
*I *618:I I *D gf180mcu_fd_sc_mcu7t5v0__buf_2
*CAP
1 FrameData[14] 0.00162411
2 *618:I 0.00162411
3 *618:I *619:I 0.00136937
4 *618:I *674:I 0.00176601
5 *618:I *748:I 1.19663e-05
6 *618:I *135:21 0.000598014
7 *615:I *618:I 1.77406e-05
8 *617:I *618:I 0.00133446
*RES
1 FrameData[14] *618:I 35.988 
*END

*D_NET *7 0.0136906
*CONN
*P FrameData[15] I
*I *619:I I *D gf180mcu_fd_sc_mcu7t5v0__buf_2
*CAP
1 FrameData[15] 0.00134696
2 *619:I 0.00134696
3 *619:I *608:I 0
4 *619:I *620:I 0.00112991
5 *619:I *672:I 0.000438718
6 *619:I *674:I 0.00460447
7 *619:I *109:17 0.000124413
8 *618:I *619:I 0.00136937
9 *4:23 *619:I 0.00332979
*RES
1 FrameData[15] *619:I 37.028 
*END

*D_NET *8 0.0145222
*CONN
*P FrameData[16] I
*I *620:I I *D gf180mcu_fd_sc_mcu7t5v0__buf_2
*CAP
1 FrameData[16] 0.00117092
2 *620:I 0.00117092
3 *620:I *605:I 0.00176315
4 *620:I *608:I 0
5 *620:I *621:I 0.000398103
6 *620:I *644:I 1.74238e-05
7 *620:I *673:I 0.00430856
8 *620:I *109:17 0.00454033
9 *620:I *247:20 2.28923e-05
10 *615:I *620:I 0
11 *619:I *620:I 0.00112991
*RES
1 FrameData[16] *620:I 37.652 
*END

*D_NET *9 0.0119748
*CONN
*P FrameData[17] I
*I *621:I I *D gf180mcu_fd_sc_mcu7t5v0__buf_2
*CAP
1 FrameData[17] 0.00145129
2 *621:I 0.00145129
3 *621:I *605:I 0.00423367
4 *621:I *609:I 0
5 *621:I *622:I 0.00168604
6 *621:I *640:I 0
7 *621:I *673:I 0.000120747
8 *621:I *739:I 8.59785e-06
9 *621:I *781:I 1.19584e-05
10 *621:I *83:17 0.0024081
11 *620:I *621:I 0.000398103
12 *3:19 *621:I 0.000204966
*RES
1 FrameData[17] *621:I 41.604 
*END

*D_NET *10 0.0153117
*CONN
*P FrameData[18] I
*I *622:I I *D gf180mcu_fd_sc_mcu7t5v0__buf_2
*CAP
1 FrameData[18] 0.00109934
2 *622:I 0.00109934
3 *622:I *608:I 0.00218476
4 *622:I *623:I 4.6192e-05
5 *622:I *81:19 0.00209555
6 *621:I *622:I 0.00168604
7 *3:19 *622:I 0.00710046
*RES
1 FrameData[18] *622:I 46.756 
*END

*D_NET *11 0.0146619
*CONN
*P FrameData[19] I
*I *623:I I *D gf180mcu_fd_sc_mcu7t5v0__buf_2
*CAP
1 FrameData[19] 0.00135168
2 *623:I 0.00135168
3 *623:I *608:I 0.000668539
4 *623:I *609:I 4.41424e-06
5 *623:I *624:I 0.0006788
6 *623:I *688:I 0.00150109
7 *623:I *739:I 0.000868166
8 *623:I *81:19 0.000115856
9 *623:I *83:17 2.37817e-05
10 *623:I *134:23 0.00317261
11 *623:I *220:16 0.000385794
12 *623:I *247:20 0.000514579
13 *623:I *258:16 2.17376e-05
14 *622:I *623:I 4.6192e-05
15 *3:19 *623:I 0.00395693
*RES
1 FrameData[19] *623:I 42.02 
*END

*D_NET *12 0.0194844
*CONN
*P FrameData[1] I
*I *605:I I *D gf180mcu_fd_sc_mcu7t5v0__buf_2
*CAP
1 FrameData[1] 0.00237551
2 *605:I 0.000992765
3 *12:11 0.00336828
4 *605:I *608:I 0
5 *605:I *640:I 4.66004e-05
6 *605:I *673:I 0.00578847
7 *605:I *726:I 0
8 *605:I *200:28 6.72912e-05
9 *12:11 *23:15 0.000420842
10 *12:11 *29:23 0
11 *604:I *12:11 0.000427809
12 *620:I *605:I 0.00176315
13 *621:I *605:I 0.00423367
*RES
1 FrameData[1] *12:11 27.044 
2 *12:11 *605:I 37.496 
*END

*D_NET *13 0.0218019
*CONN
*P FrameData[20] I
*I *624:I I *D gf180mcu_fd_sc_mcu7t5v0__buf_2
*CAP
1 FrameData[20] 0.000958603
2 *624:I 0.000958603
3 *624:I *608:I 0.00698128
4 *624:I *609:I 0.0113507
5 *624:I *625:I 0.000222608
6 *624:I *740:I 0
7 *624:I *81:19 0.000483991
8 *624:I *220:16 0.000167288
9 *623:I *624:I 0.0006788
*RES
1 FrameData[20] *624:I 42.02 
*END

*D_NET *14 0.0102917
*CONN
*P FrameData[21] I
*I *625:I I *D gf180mcu_fd_sc_mcu7t5v0__buf_2
*CAP
1 FrameData[21] 0.00124658
2 *625:I 0.00124658
3 *625:I *609:I 0.00026322
4 *625:I *626:I 0.00186559
5 *625:I *641:I 0.0028404
6 *625:I *709:I 6.32895e-05
7 *625:I *739:I 2.16732e-05
8 *625:I *268:14 0.00252172
9 *624:I *625:I 0.000222608
*RES
1 FrameData[21] *625:I 37.236 
*END

*D_NET *15 0.0113441
*CONN
*P FrameData[22] I
*I *626:I I *D gf180mcu_fd_sc_mcu7t5v0__buf_2
*CAP
1 FrameData[22] 0.00156847
2 *626:I 0.00156847
3 *626:I *606:I 0.00412918
4 *626:I *627:I 0.00135872
5 *626:I *641:I 0.000623974
6 *626:I *734:I 4.97811e-05
7 *626:I *182:14 0.000179963
8 *626:I *220:16 0
9 *625:I *626:I 0.00186559
*RES
1 FrameData[22] *626:I 39.316 
*END

*D_NET *16 0.00958904
*CONN
*P FrameData[23] I
*I *627:I I *D gf180mcu_fd_sc_mcu7t5v0__buf_2
*CAP
1 FrameData[23] 0.00158672
2 *627:I 0.00158672
3 *627:I *606:I 0.00303817
4 *627:I *628:I 0.00199615
5 *627:I *739:I 2.25633e-05
6 *626:I *627:I 0.00135872
*RES
1 FrameData[23] *627:I 36.196 
*END

*D_NET *17 0.0137714
*CONN
*P FrameData[24] I
*I *628:I I *D gf180mcu_fd_sc_mcu7t5v0__buf_2
*CAP
1 FrameData[24] 0.00134426
2 *628:I 0.00134426
3 *628:I *606:I 0.000125578
4 *628:I *629:I 0.000611929
5 *628:I *630:I 0.000709214
6 *628:I *702:I 0.00133699
7 *628:I *733:I 0.00567849
8 *628:I *740:I 1.40761e-05
9 *628:I *220:16 0.0006105
10 *627:I *628:I 0.00199615
*RES
1 FrameData[24] *628:I 40.772 
*END

*D_NET *18 0.0188007
*CONN
*P FrameData[25] I
*I *629:I I *D gf180mcu_fd_sc_mcu7t5v0__buf_2
*CAP
1 FrameData[25] 0.000493738
2 *629:I 0.000493738
3 *629:I *630:I 0.00771059
4 *629:I *709:I 8.44565e-06
5 *629:I *739:I 3.22108e-05
6 *629:I *21:15 0.00941357
7 *629:I *25:17 3.646e-05
8 *628:I *629:I 0.000611929
*RES
1 FrameData[25] *629:I 36.196 
*END

*D_NET *19 0.0182769
*CONN
*P FrameData[26] I
*I *630:I I *D gf180mcu_fd_sc_mcu7t5v0__buf_2
*CAP
1 FrameData[26] 0.00111482
2 *630:I 0.00111482
3 *630:I *631:I 0.000497528
4 *630:I *702:I 2.38773e-05
5 *630:I *709:I 8.1598e-06
6 *630:I *734:I 0.000185295
7 *630:I *21:15 0.000259338
8 *630:I *25:17 0.0012583
9 *630:I *220:16 0.00539499
10 *628:I *630:I 0.000709214
11 *629:I *630:I 0.00771059
*RES
1 FrameData[26] *630:I 48.316 
*END

*D_NET *20 0.00967973
*CONN
*P FrameData[27] I
*I *631:I I *D gf180mcu_fd_sc_mcu7t5v0__buf_2
*CAP
1 FrameData[27] 0.00197381
2 *631:I 0.00197381
3 *631:I *633:I 0
4 *631:I *719:I 0.000202134
5 *631:I *731:I 0.00172565
6 *631:I *21:15 0.000235136
7 *631:I *25:17 0.000628782
8 *631:I *125:13 0.00244288
9 *630:I *631:I 0.000497528
*RES
1 FrameData[27] *631:I 41.5 
*END

*D_NET *21 0.0202724
*CONN
*P FrameData[28] I
*I *632:I I *D gf180mcu_fd_sc_mcu7t5v0__buf_2
*CAP
1 FrameData[28] 0.000910805
2 *632:I 0
3 *21:15 0.000910805
4 *21:15 *633:I 0.000209752
5 *21:15 *700:I 0.00207108
6 *21:15 *703:I 0.000793462
7 *21:15 *780:I 0
8 *21:15 *25:17 0.00538947
9 *21:15 *220:16 7.90166e-05
10 *629:I *21:15 0.00941357
11 *630:I *21:15 0.000259338
12 *631:I *21:15 0.000235136
*RES
1 FrameData[28] *21:15 47.456 
2 *21:15 *632:I 4.5 
*END

*D_NET *22 0.00963383
*CONN
*P FrameData[29] I
*I *633:I I *D gf180mcu_fd_sc_mcu7t5v0__buf_2
*CAP
1 FrameData[29] 0.00197365
2 *633:I 0.00197365
3 *633:I FrameStrobe_O[8] 0.000531148
4 *633:I *634:I 0.00208994
5 *633:I *719:I 0.00233335
6 *633:I *736:I 0.000522341
7 *631:I *633:I 0
8 *21:15 *633:I 0.000209752
*RES
1 FrameData[29] *633:I 39.212 
*END

*D_NET *23 0.0294895
*CONN
*P FrameData[2] I
*I *606:I I *D gf180mcu_fd_sc_mcu7t5v0__buf_2
*CAP
1 FrameData[2] 0.00401286
2 *606:I 0.0018176
3 *23:15 0.00583047
4 *606:I *609:I 0
5 *606:I *639:I 0
6 *606:I *645:I 4.93132e-05
7 *606:I *672:I 0.000686838
8 *606:I *699:I 0.000176976
9 *606:I *701:I 0.000352102
10 *606:I *702:I 0.000143986
11 *606:I *713:I 0.000155419
12 *606:I *720:I 0.000369995
13 *606:I *733:I 0.000120601
14 *606:I *740:I 1.87777e-05
15 *606:I *760:I 1.67667e-05
16 *606:I *182:14 0.000520754
17 *606:I *219:18 0.000259344
18 *23:15 *656:I 0.000412874
19 *23:15 *657:I 0.000262235
20 *23:15 *663:I 5.43093e-05
21 *23:15 *668:I 4.93072e-05
22 *23:15 *669:I 0.000403226
23 *23:15 *670:I 0.00268327
24 *23:15 *672:I 4.81449e-05
25 *23:15 *673:I 0
26 *23:15 *773:I 0.00141894
27 *23:15 *26:25 0.00071957
28 *23:15 *29:23 0.000206806
29 *23:15 *113:21 0.000271774
30 *23:15 *125:13 0.000504891
31 *604:I *23:15 0.000208576
32 *626:I *606:I 0.00412918
33 *627:I *606:I 0.00303817
34 *628:I *606:I 0.000125578
35 *12:11 *23:15 0.000420842
*RES
1 FrameData[2] *23:15 46.388 
2 *23:15 *606:I 34.584 
*END

*D_NET *24 0.00817468
*CONN
*P FrameData[30] I
*I *634:I I *D gf180mcu_fd_sc_mcu7t5v0__buf_2
*CAP
1 FrameData[30] 0.00266608
2 *634:I 0.00266608
3 *634:I FrameStrobe_O[2] 5.76275e-05
4 *634:I FrameStrobe_O[4] 4.33918e-05
5 *634:I FrameStrobe_O[5] 0.000100335
6 *634:I FrameStrobe_O[7] 5.76275e-05
7 *634:I FrameStrobe_O[8] 0.000125206
8 *634:I FrameStrobe_O[9] 0
9 *634:I *709:I 2.38773e-05
10 *634:I *739:I 0.00011772
11 *634:I *25:17 0.000226784
12 *633:I *634:I 0.00208994
*RES
1 FrameData[30] *634:I 38.692 
*END

*D_NET *25 0.0182883
*CONN
*P FrameData[31] I
*I *635:I I *D gf180mcu_fd_sc_mcu7t5v0__buf_2
*CAP
1 FrameData[31] 0.0017868
2 *635:I 0.000309017
3 *25:17 0.00209582
4 *635:I FrameStrobe_O[11] 0.000485392
5 *635:I *710:I 3.66054e-05
6 *635:I *720:I 0.00011912
7 *25:17 UserCLKo 0
8 *25:17 *700:I 0.00347921
9 *25:17 *734:I 0.00163955
10 *25:17 *125:13 0.000797013
11 *629:I *25:17 3.646e-05
12 *630:I *25:17 0.0012583
13 *631:I *25:17 0.000628782
14 *634:I *25:17 0.000226784
15 *21:15 *25:17 0.00538947
*RES
1 FrameData[31] *25:17 49.196 
2 *25:17 *635:I 11.6 
*END

*D_NET *26 0.0219574
*CONN
*P FrameData[3] I
*I *607:I I *D gf180mcu_fd_sc_mcu7t5v0__buf_2
*CAP
1 FrameData[3] 0.00237488
2 *607:I 7.43889e-05
3 *26:25 0.00244927
4 *607:I *711:I 3.22786e-06
5 *26:25 *613:I 0.00103409
6 *26:25 *657:I 6.36074e-05
7 *26:25 *658:I 0.000214386
8 *26:25 *660:I 0.000280079
9 *26:25 *661:I 0.000343518
10 *26:25 *663:I 0.000503614
11 *26:25 *669:I 0.000787346
12 *26:25 *679:I 0.000488923
13 *26:25 *686:I 0.00187204
14 *26:25 *742:I 0.000361141
15 *26:25 *746:I 0.00143992
16 *26:25 *749:I 0.000100603
17 *26:25 *771:I 0.000103788
18 *26:25 *772:I 0.000212625
19 *26:25 *773:I 0.0042647
20 *26:25 *27:11 0.000603108
21 *26:25 *113:21 2.19312e-06
22 *26:25 *132:25 0.00295791
23 *26:25 *133:33 0.000424962
24 *26:25 *134:23 0.000187397
25 *26:25 *135:21 9.01153e-05
26 *23:15 *26:25 0.00071957
*RES
1 FrameData[3] *26:25 48.572 
2 *26:25 *607:I 9.312 
*END

*D_NET *27 0.0219589
*CONN
*P FrameData[4] I
*I *608:I I *D gf180mcu_fd_sc_mcu7t5v0__buf_2
*CAP
1 FrameData[4] 0.00286654
2 *608:I 0.00104072
3 *27:11 0.00390727
4 *608:I *640:I 2.70528e-05
5 *608:I *734:I 0.000384037
6 *608:I *81:19 0.000718398
7 *608:I *247:20 8.2133e-05
8 *27:11 *658:I 4.55051e-05
9 *27:11 *667:I 0.000360343
10 *27:11 *745:I 0.00176547
11 *27:11 *28:11 0.000233752
12 *27:11 *29:23 0
13 *604:I *27:11 8.99532e-05
14 *605:I *608:I 0
15 *619:I *608:I 0
16 *620:I *608:I 0
17 *622:I *608:I 0.00218476
18 *623:I *608:I 0.000668539
19 *624:I *608:I 0.00698128
20 *26:25 *27:11 0.000603108
*RES
1 FrameData[4] *27:11 33.284 
2 *27:11 *608:I 30.736 
*END

*D_NET *28 0.0311226
*CONN
*P FrameData[5] I
*I *609:I I *D gf180mcu_fd_sc_mcu7t5v0__buf_2
*CAP
1 FrameData[5] 0.00213427
2 *609:I 0.000856325
3 *28:11 0.0029906
4 *609:I *645:I 0.000125055
5 *609:I *695:I 0.000116466
6 *609:I *740:I 0.00103808
7 *609:I *781:I 1.40331e-05
8 *609:I *81:19 0.000148835
9 *609:I *220:16 0
10 *609:I *268:14 0.0110737
11 *28:11 *29:23 0.000773109
12 *606:I *609:I 0
13 *621:I *609:I 0
14 *623:I *609:I 4.41424e-06
15 *624:I *609:I 0.0113507
16 *625:I *609:I 0.00026322
17 *3:19 *28:11 0
18 *27:11 *28:11 0.000233752
*RES
1 FrameData[5] *28:11 24.548 
2 *28:11 *609:I 43.736 
*END

*D_NET *29 0.0233644
*CONN
*P FrameData[6] I
*I *610:I I *D gf180mcu_fd_sc_mcu7t5v0__buf_2
*CAP
1 FrameData[6] 0.0011388
2 *610:I 0.000522265