*SPEF "ieee 1481-1999"
*DESIGN "S_term_DSP"
*DATE "22:48:18 Friday December 05, 2025"
*VENDOR "The OpenROAD Project"
*PROGRAM "OpenROAD"
*VERSION "341650e72dad0dc8571822ff8c5d9c5e365327f7"
*DESIGN_FLOW "NAME_SCOPE LOCAL" "PIN_CAP NONE"
*DIVIDER /
*DELIMITER :
*BUS_DELIMITER []
*T_UNIT 1 NS
*C_UNIT 1 PF
*R_UNIT 1 OHM
*L_UNIT 1 HENRY

*NAME_MAP
*1 FrameData[0]
*2 FrameData[10]
*3 FrameData[11]
*4 FrameData[12]
*5 FrameData[13]
*6 FrameData[14]
*7 FrameData[15]
*8 FrameData[16]
*9 FrameData[17]
*10 FrameData[18]
*11 FrameData[19]
*12 FrameData[1]
*13 FrameData[20]
*14 FrameData[21]
*15 FrameData[22]
*16 FrameData[23]
*17 FrameData[24]
*18 FrameData[25]
*19 FrameData[26]
*20 FrameData[27]
*21 FrameData[28]
*22 FrameData[29]
*23 FrameData[2]
*24 FrameData[30]
*25 FrameData[31]
*26 FrameData[3]
*27 FrameData[4]
*28 FrameData[5]
*29 FrameData[6]
*30 FrameData[7]
*31 FrameData[8]
*32 FrameData[9]
*33 FrameData_O[0]
*34 FrameData_O[10]
*35 FrameData_O[11]
*36 FrameData_O[12]
*37 FrameData_O[13]
*38 FrameData_O[14]
*39 FrameData_O[15]
*40 FrameData_O[16]
*41 FrameData_O[17]
*42 FrameData_O[18]
*43 FrameData_O[19]
*44 FrameData_O[1]
*45 FrameData_O[20]
*46 FrameData_O[21]
*47 FrameData_O[22]
*48 FrameData_O[23]
*49 FrameData_O[24]
*50 FrameData_O[25]
*51 FrameData_O[26]
*52 FrameData_O[27]
*53 FrameData_O[28]
*54 FrameData_O[29]
*55 FrameData_O[2]
*56 FrameData_O[30]
*57 FrameData_O[31]
*58 FrameData_O[3]
*59 FrameData_O[4]
*60 FrameData_O[5]
*61 FrameData_O[6]
*62 FrameData_O[7]
*63 FrameData_O[8]
*64 FrameData_O[9]
*65 FrameStrobe[0]
*66 FrameStrobe[10]
*67 FrameStrobe[11]
*68 FrameStrobe[12]
*69 FrameStrobe[13]
*70 FrameStrobe[14]
*71 FrameStrobe[15]
*72 FrameStrobe[16]
*73 FrameStrobe[17]
*74 FrameStrobe[18]
*75 FrameStrobe[19]
*76 FrameStrobe[1]
*77 FrameStrobe[2]
*78 FrameStrobe[3]
*79 FrameStrobe[4]
*80 FrameStrobe[5]
*81 FrameStrobe[6]
*82 FrameStrobe[7]
*83 FrameStrobe[8]
*84 FrameStrobe[9]
*85 FrameStrobe_O[0]
*86 FrameStrobe_O[10]
*87 FrameStrobe_O[11]
*88 FrameStrobe_O[12]
*89 FrameStrobe_O[13]
*90 FrameStrobe_O[14]
*91 FrameStrobe_O[15]
*92 FrameStrobe_O[16]
*93 FrameStrobe_O[17]
*94 FrameStrobe_O[18]
*95 FrameStrobe_O[19]
*96 FrameStrobe_O[1]
*97 FrameStrobe_O[2]
*98 FrameStrobe_O[3]
*99 FrameStrobe_O[4]
*100 FrameStrobe_O[5]
*101 FrameStrobe_O[6]
*102 FrameStrobe_O[7]
*103 FrameStrobe_O[8]
*104 FrameStrobe_O[9]
*105 N1BEG[0]
*106 N1BEG[1]
*107 N1BEG[2]
*108 N1BEG[3]
*109 N2BEG[0]
*110 N2BEG[1]
*111 N2BEG[2]
*112 N2BEG[3]
*113 N2BEG[4]
*114 N2BEG[5]
*115 N2BEG[6]
*116 N2BEG[7]
*117 N2BEGb[0]
*118 N2BEGb[1]
*119 N2BEGb[2]
*120 N2BEGb[3]
*121 N2BEGb[4]
*122 N2BEGb[5]
*123 N2BEGb[6]
*124 N2BEGb[7]
*125 N4BEG[0]
*126 N4BEG[10]
*127 N4BEG[11]
*128 N4BEG[12]
*129 N4BEG[13]
*130 N4BEG[14]
*131 N4BEG[15]
*132 N4BEG[1]
*133 N4BEG[2]
*134 N4BEG[3]
*135 N4BEG[4]
*136 N4BEG[5]
*137 N4BEG[6]
*138 N4BEG[7]
*139 N4BEG[8]
*140 N4BEG[9]
*141 NN4BEG[0]
*142 NN4BEG[10]
*143 NN4BEG[11]
*144 NN4BEG[12]
*145 NN4BEG[13]
*146 NN4BEG[14]
*147 NN4BEG[15]
*148 NN4BEG[1]
*149 NN4BEG[2]
*150 NN4BEG[3]
*151 NN4BEG[4]
*152 NN4BEG[5]
*153 NN4BEG[6]
*154 NN4BEG[7]
*155 NN4BEG[8]
*156 NN4BEG[9]
*157 S1END[0]
*158 S1END[1]
*159 S1END[2]
*160 S1END[3]
*161 S2END[0]
*162 S2END[1]
*163 S2END[2]
*164 S2END[3]
*165 S2END[4]
*166 S2END[5]
*167 S2END[6]
*168 S2END[7]
*169 S2MID[0]
*170 S2MID[1]
*171 S2MID[2]
*172 S2MID[3]
*173 S2MID[4]
*174 S2MID[5]
*175 S2MID[6]
*176 S2MID[7]
*177 S4END[0]
*178 S4END[10]
*179 S4END[11]
*180 S4END[12]
*181 S4END[13]
*182 S4END[14]
*183 S4END[15]
*184 S4END[1]
*185 S4END[2]
*186 S4END[3]
*187 S4END[4]
*188 S4END[5]
*189 S4END[6]
*190 S4END[7]
*191 S4END[8]
*192 S4END[9]
*193 SS4END[0]
*194 SS4END[10]
*195 SS4END[11]
*196 SS4END[12]
*197 SS4END[13]
*198 SS4END[14]
*199 SS4END[15]
*200 SS4END[1]
*201 SS4END[2]
*202 SS4END[3]
*203 SS4END[4]
*204 SS4END[5]
*205 SS4END[6]
*206 SS4END[7]
*207 SS4END[8]
*208 SS4END[9]
*209 UserCLK
*210 UserCLKo
*213 net1
*214 net10
*215 net100
*216 net101
*217 net102
*218 net103
*219 net104
*220 net105
*221 net11
*222 net12
*223 net13
*224 net14
*225 net15
*226 net16
*227 net17
*228 net18
*229 net19
*230 net2
*231 net20
*232 net21
*233 net22
*234 net23
*235 net24
*236 net25
*237 net26
*238 net27
*239 net28
*240 net29
*241 net3
*242 net30
*243 net31
*244 net32
*245 net33
*246 net34
*247 net35
*248 net36
*249 net37
*250 net38
*251 net39
*252 net4
*253 net40
*254 net41
*255 net42
*256 net43
*257 net44
*258 net45
*259 net46
*260 net47
*261 net48
*262 net49
*263 net5
*264 net50
*265 net51
*266 net52
*267 net53
*268 net54
*269 net55
*270 net56
*271 net57
*272 net58
*273 net59
*274 net6
*275 net60
*276 net61
*277 net62
*278 net63
*279 net64
*280 net65
*281 net66
*282 net67
*283 net68
*284 net69
*285 net7
*286 net70
*287 net71
*288 net72
*289 net73
*290 net74
*291 net75
*292 net76
*293 net77
*294 net78
*295 net79
*296 net8
*297 net80
*298 net81
*299 net82
*300 net83
*301 net84
*302 net85
*303 net86
*304 net87
*305 net88
*306 net89
*307 net9
*308 net90
*309 net91
*310 net92
*311 net93
*312 net94
*313 net95
*314 net96
*315 net97
*316 net98
*317 net99
*318 ANTENNA__000__I
*319 ANTENNA__001__I
*320 ANTENNA__002__I
*321 ANTENNA__003__I
*322 ANTENNA__004__I
*323 ANTENNA__005__I
*324 ANTENNA__006__I
*325 ANTENNA__007__I
*326 ANTENNA__008__I
*327 ANTENNA__009__I
*328 ANTENNA__010__I
*329 ANTENNA__011__I
*330 ANTENNA__012__I
*331 ANTENNA__013__I
*332 ANTENNA__014__I
*333 ANTENNA__015__I
*334 ANTENNA__016__I
*335 ANTENNA__017__I
*336 ANTENNA__018__I
*337 ANTENNA__019__I
*338 ANTENNA__020__I
*339 ANTENNA__021__I
*340 ANTENNA__022__I
*341 ANTENNA__023__I
*342 ANTENNA__024__I
*343 ANTENNA__025__I
*344 ANTENNA__026__I
*345 ANTENNA__027__I
*346 ANTENNA__028__I
*347 ANTENNA__029__I
*348 ANTENNA__030__I
*349 ANTENNA__031__I
*350 ANTENNA__032__I
*351 ANTENNA__033__I
*352 ANTENNA__034__I
*353 ANTENNA__035__I
*354 ANTENNA__036__I
*355 ANTENNA__037__I
*356 ANTENNA__038__I
*357 ANTENNA__039__I
*358 ANTENNA__040__I
*359 ANTENNA__041__I
*360 ANTENNA__042__I
*361 ANTENNA__043__I
*362 ANTENNA__044__I
*363 ANTENNA__045__I
*364 ANTENNA__046__I
*365 ANTENNA__047__I
*366 ANTENNA__048__I
*367 ANTENNA__049__I
*368 ANTENNA__050__I
*369 ANTENNA__051__I
*370 ANTENNA__052__I
*371 ANTENNA__053__I
*372 ANTENNA__054__I
*373 ANTENNA__055__I
*374 ANTENNA__056__I
*375 ANTENNA__057__I
*376 ANTENNA__058__I
*377 ANTENNA__059__I
*378 ANTENNA__060__I
*379 ANTENNA__061__I
*380 ANTENNA__062__I
*381 ANTENNA__063__I
*382 ANTENNA__064__I
*383 ANTENNA__065__I
*384 ANTENNA__066__I
*385 ANTENNA__067__I
*386 ANTENNA__068__I
*387 ANTENNA__069__I
*388 ANTENNA__070__I
*389 ANTENNA__071__I
*390 ANTENNA__072__I
*391 ANTENNA__073__I
*392 ANTENNA__074__I
*393 ANTENNA__075__I
*394 ANTENNA__076__I
*395 ANTENNA__077__I
*396 ANTENNA__078__I
*397 ANTENNA__079__I
*398 ANTENNA__080__I
*399 ANTENNA__081__I
*400 ANTENNA__082__I
*401 ANTENNA__083__I
*402 ANTENNA__084__I
*403 ANTENNA__085__I
*404 ANTENNA__086__I
*405 ANTENNA__087__I
*406 ANTENNA__088__I
*407 ANTENNA__089__I
*408 ANTENNA__090__I
*409 ANTENNA__091__I
*410 ANTENNA__092__I
*411 ANTENNA__093__I
*412 ANTENNA__094__I
*413 ANTENNA__095__I
*414 ANTENNA__096__I
*415 ANTENNA__097__I
*416 ANTENNA__098__I
*417 ANTENNA__099__I
*418 ANTENNA__100__I
*419 ANTENNA__101__I
*420 ANTENNA__102__I
*421 ANTENNA__103__I
*422 ANTENNA__104__I
*423 FILLER_0_104
*424 FILLER_0_138
*425 FILLER_0_172
*426 FILLER_0_184
*427 FILLER_0_2
*428 FILLER_0_200
*429 FILLER_0_206
*430 FILLER_0_240
*431 FILLER_0_274
*432 FILLER_0_308
*433 FILLER_0_342
*434 FILLER_0_36
*435 FILLER_0_376
*436 FILLER_0_410
*437 FILLER_0_454
*438 FILLER_0_456
*439 FILLER_0_70
*440 FILLER_10_107
*441 FILLER_10_2
*442 FILLER_10_201
*443 FILLER_10_205
*444 FILLER_10_226
*445 FILLER_10_234
*446 FILLER_10_237
*447 FILLER_10_247
*448 FILLER_10_311
*449 FILLER_10_317
*450 FILLER_10_333
*451 FILLER_10_34
*452 FILLER_10_345
*453 FILLER_10_363
*454 FILLER_10_366
*455 FILLER_10_37
*456 FILLER_10_382
*457 FILLER_10_384
*458 FILLER_10_387
*459 FILLER_10_393
*460 FILLER_10_409
*461 FILLER_10_53
*462 FILLER_10_61
*463 FILLER_10_65
*464 FILLER_10_67
*465 FILLER_10_78
*466 FILLER_10_86
*467 FILLER_10_90
*468 FILLER_11_142
*469 FILLER_11_144
*470 FILLER_11_2
*471 FILLER_11_201
*472 FILLER_11_209
*473 FILLER_11_222
*474 FILLER_11_226
*475 FILLER_11_243
*476 FILLER_11_275
*477 FILLER_11_279
*478 FILLER_11_282
*479 FILLER_11_298
*480 FILLER_11_309
*481 FILLER_11_313
*482 FILLER_11_324
*483 FILLER_11_332
*484 FILLER_11_334
*485 FILLER_11_349
*486 FILLER_11_374
*487 FILLER_11_382
*488 FILLER_11_401
*489 FILLER_11_417
*490 FILLER_11_419
*491 FILLER_11_422
*492 FILLER_11_426
*493 FILLER_11_428
*494 FILLER_11_66
*495 FILLER_11_82
*496 FILLER_11_96
*497 FILLER_12_107
*498 FILLER_12_115
*499 FILLER_12_17
*500 FILLER_12_177
*501 FILLER_12_181
*502 FILLER_12_2
*503 FILLER_12_211
*504 FILLER_12_219
*505 FILLER_12_223
*506 FILLER_12_225
*507 FILLER_12_244
*508 FILLER_12_247
*509 FILLER_12_311
*510 FILLER_12_317
*511 FILLER_12_33
*512 FILLER_12_37
*513 FILLER_12_381
*514 FILLER_12_387
*515 FILLER_12_403
*516 FILLER_12_411
*517 FILLER_12_415
*518 FILLER_12_45
*519 FILLER_12_47
*520 FILLER_12_50
*521 FILLER_12_6
*522 FILLER_12_66
*523 FILLER_12_74
*524 FILLER_12_76
*525 FILLER_13_142
*526 FILLER_13_2
*527 FILLER_13_222
*528 FILLER_13_230
*529 FILLER_13_236
*530 FILLER_13_250
*531 FILLER_13_252
*532 FILLER_13_255
*533 FILLER_13_271
*534 FILLER_13_279
*535 FILLER_13_282
*536 FILLER_13_314
*537 FILLER_13_318
*538 FILLER_13_34
*539 FILLER_13_347
*540 FILLER_13_349
*541 FILLER_13_38
*542 FILLER_13_380
*543 FILLER_13_412
*544 FILLER_13_422
*545 FILLER_13_426
*546 FILLER_13_428
*547 FILLER_13_58
*548 FILLER_13_60
*549 FILLER_13_63
*550 FILLER_13_67
*551 FILLER_13_69
*552 FILLER_13_72
*553 FILLER_13_80
*554 FILLER_14_10
*555 FILLER_14_117
*556 FILLER_14_14
*557 FILLER_14_2
*558 FILLER_14_219
*559 FILLER_14_227
*560 FILLER_14_239
*561 FILLER_14_26
*562 FILLER_14_263
*563 FILLER_14_274
*564 FILLER_14_306
*565 FILLER_14_314
*566 FILLER_14_34
*567 FILLER_14_37
*568 FILLER_14_381
*569 FILLER_14_387
*570 FILLER_14_403
*571 FILLER_14_41
*572 FILLER_14_411
*573 FILLER_14_43
*574 FILLER_14_52
*575 FILLER_14_71
*576 FILLER_14_75
*577 FILLER_15_104
*578 FILLER_15_138
*579 FILLER_15_172
*580 FILLER_15_2
*581 FILLER_15_206
*582 FILLER_15_221
*583 FILLER_15_237
*584 FILLER_15_240
*585 FILLER_15_274
*586 FILLER_15_308
*587 FILLER_15_329
*588 FILLER_15_36
*589 FILLER_15_370
*590 FILLER_15_373
*591 FILLER_15_404
*592 FILLER_15_410
*593 FILLER_15_454
*594 FILLER_15_456
*595 FILLER_15_54
*596 FILLER_15_62
*597 FILLER_15_66
*598 FILLER_15_70
*599 FILLER_1_125
*600 FILLER_1_133
*601 FILLER_1_137
*602 FILLER_1_139
*603 FILLER_1_142
*604 FILLER_1_158
*605 FILLER_1_172
*606 FILLER_1_183
*607 FILLER_1_199
*608 FILLER_1_2
*609 FILLER_1_207
*610 FILLER_1_209
*611 FILLER_1_212
*612 FILLER_1_276
*613 FILLER_1_282
*614 FILLER_1_294
*615 FILLER_1_326
*616 FILLER_1_334
*617 FILLER_1_338
*618 FILLER_1_352
*619 FILLER_1_368
*620 FILLER_1_376
*621 FILLER_1_380
*622 FILLER_1_392
*623 FILLER_1_408
*624 FILLER_1_422
*625 FILLER_1_426
*626 FILLER_1_428
*627 FILLER_1_66
*628 FILLER_1_72
*629 FILLER_1_88
*630 FILLER_1_96
*631 FILLER_1_99
*632 FILLER_2_109
*633 FILLER_2_141
*634 FILLER_2_15
*635 FILLER_2_153
*636 FILLER_2_169
*637 FILLER_2_173
*638 FILLER_2_177
*639 FILLER_2_2
*640 FILLER_2_23
*641 FILLER_2_241
*642 FILLER_2_247
*643 FILLER_2_311
*644 FILLER_2_317
*645 FILLER_2_321
*646 FILLER_2_332
*647 FILLER_2_336
*648 FILLER_2_348
*649 FILLER_2_380
*650 FILLER_2_384
*651 FILLER_2_387
*652 FILLER_2_39
*653 FILLER_2_395
*654 FILLER_2_4
*655 FILLER_2_406
*656 FILLER_2_410
*657 FILLER_2_412
*658 FILLER_2_71
*659 FILLER_2_87
*660 FILLER_3_136
*661 FILLER_3_142
*662 FILLER_3_158
*663 FILLER_3_166
*664 FILLER_3_168
*665 FILLER_3_179
*666 FILLER_3_19
*667 FILLER_3_195
*668 FILLER_3_2
*669 FILLER_3_203
*670 FILLER_3_207
*671 FILLER_3_209
*672 FILLER_3_222
*673 FILLER_3_230
*674 FILLER_3_234
*675 FILLER_3_246
*676 FILLER_3_250
*677 FILLER_3_262
*678 FILLER_3_278
*679 FILLER_3_282
*680 FILLER_3_284
*681 FILLER_3_295
*682 FILLER_3_327
*683 FILLER_3_343
*684 FILLER_3_347
*685 FILLER_3_349
*686 FILLER_3_352
*687 FILLER_3_384
*688 FILLER_3_388
*689 FILLER_3_418
*690 FILLER_3_422
*691 FILLER_3_426
*692 FILLER_3_428
*693 FILLER_3_51
*694 FILLER_3_6
*695 FILLER_3_67
*696 FILLER_3_69
*697 FILLER_3_72
*698 FILLER_3_8
*699 FILLER_4_101
*700 FILLER_4_107
*701 FILLER_4_123
*702 FILLER_4_135
*703 FILLER_4_167
*704 FILLER_4_177
*705 FILLER_4_2
*706 FILLER_4_209
*707 FILLER_4_225
*708 FILLER_4_237
*709 FILLER_4_247
*710 FILLER_4_279
*711 FILLER_4_281
*712 FILLER_4_292
*713 FILLER_4_308
*714 FILLER_4_312
*715 FILLER_4_314
*716 FILLER_4_317
*717 FILLER_4_34
*718 FILLER_4_349
*719 FILLER_4_365
*720 FILLER_4_367
*721 FILLER_4_37
*722 FILLER_4_378
*723 FILLER_4_382
*724 FILLER_4_395
*725 FILLER_4_403
*726 FILLER_4_415
*727 FILLER_4_69
*728 FILLER_4_77
*729 FILLER_4_81
*730 FILLER_4_93
*731 FILLER_5_130
*732 FILLER_5_138
*733 FILLER_5_142
*734 FILLER_5_144
*735 FILLER_5_155
*736 FILLER_5_187
*737 FILLER_5_191
*738 FILLER_5_193
*739 FILLER_5_2
*740 FILLER_5_204
*741 FILLER_5_208
*742 FILLER_5_212
*743 FILLER_5_223
*744 FILLER_5_255
*745 FILLER_5_271
*746 FILLER_5_279
*747 FILLER_5_282
*748 FILLER_5_314
*749 FILLER_5_330
*750 FILLER_5_334
*751 FILLER_5_34
*752 FILLER_5_348
*753 FILLER_5_352
*754 FILLER_5_416
*755 FILLER_5_42
*756 FILLER_5_422
*757 FILLER_5_426
*758 FILLER_5_428
*759 FILLER_5_45
*760 FILLER_5_56
*761 FILLER_5_64
*762 FILLER_5_68
*763 FILLER_5_72
*764 FILLER_5_80
*765 FILLER_5_84
*766 FILLER_5_88
*767 FILLER_6_104
*768 FILLER_6_107
*769 FILLER_6_171
*770 FILLER_6_177
*771 FILLER_6_193
*772 FILLER_6_2
*773 FILLER_6_201
*774 FILLER_6_215
*775 FILLER_6_231
*776 FILLER_6_239
*777 FILLER_6_243
*778 FILLER_6_247
*779 FILLER_6_311
*780 FILLER_6_317
*781 FILLER_6_325
*782 FILLER_6_327
*783 FILLER_6_34
*784 FILLER_6_346
*785 FILLER_6_378
*786 FILLER_6_382
*787 FILLER_6_384
*788 FILLER_6_387
*789 FILLER_6_419
*790 FILLER_6_430
*791 FILLER_6_55
*792 FILLER_6_71
*793 FILLER_6_75
*794 FILLER_6_77
*795 FILLER_6_96
*796 FILLER_7_115
*797 FILLER_7_131
*798 FILLER_7_139
*799 FILLER_7_142
*800 FILLER_7_158
*801 FILLER_7_170
*802 FILLER_7_186
*803 FILLER_7_194
*804 FILLER_7_2
*805 FILLER_7_206
*806 FILLER_7_212
*807 FILLER_7_244
*808 FILLER_7_252
*809 FILLER_7_263
*810 FILLER_7_279
*811 FILLER_7_282
*812 FILLER_7_34
*813 FILLER_7_346
*814 FILLER_7_352
*815 FILLER_7_384
*816 FILLER_7_388
*817 FILLER_7_399
*818 FILLER_7_415
*819 FILLER_7_419
*820 FILLER_7_42
*821 FILLER_7_422
*822 FILLER_7_426
*823 FILLER_7_428
*824 FILLER_7_53
*825 FILLER_7_69
*826 FILLER_7_72
*827 FILLER_7_83
*828 FILLER_8_101
*829 FILLER_8_135
*830 FILLER_8_151
*831 FILLER_8_155
*832 FILLER_8_167
*833 FILLER_8_177
*834 FILLER_8_185
*835 FILLER_8_187
*836 FILLER_8_190
*837 FILLER_8_198
*838 FILLER_8_2
*839 FILLER_8_200
*840 FILLER_8_211
*841 FILLER_8_243
*842 FILLER_8_247
*843 FILLER_8_251
*844 FILLER_8_263
*845 FILLER_8_295
*846 FILLER_8_311
*847 FILLER_8_317
*848 FILLER_8_34
*849 FILLER_8_37
*850 FILLER_8_381
*851 FILLER_8_387
*852 FILLER_8_419
*853 FILLER_9_142
*854 FILLER_9_150
*855 FILLER_9_154
*856 FILLER_9_169
*857 FILLER_9_177
*858 FILLER_9_179
*859 FILLER_9_198
*860 FILLER_9_2
*861 FILLER_9_206
*862 FILLER_9_212
*863 FILLER_9_223
*864 FILLER_9_265
*865 FILLER_9_273
*866 FILLER_9_277
*867 FILLER_9_290
*868 FILLER_9_322
*869 FILLER_9_338
*870 FILLER_9_346
*871 FILLER_9_352
*872 FILLER_9_416
*873 FILLER_9_422
*874 FILLER_9_66
*875 FILLER_9_72
*876 FILLER_9_86
*877 PHY_EDGE_ROW_0_Left_16
*878 PHY_EDGE_ROW_0_Right_0
*879 PHY_EDGE_ROW_10_Left_26
*880 PHY_EDGE_ROW_10_Right_10
*881 PHY_EDGE_ROW_11_Left_27
*882 PHY_EDGE_ROW_11_Right_11
*883 PHY_EDGE_ROW_12_Left_28
*884 PHY_EDGE_ROW_12_Right_12
*885 PHY_EDGE_ROW_13_Left_29
*886 PHY_EDGE_ROW_13_Right_13
*887 PHY_EDGE_ROW_14_Left_30
*888 PHY_EDGE_ROW_14_Right_14
*889 PHY_EDGE_ROW_15_Left_31
*890 PHY_EDGE_ROW_15_Right_15
*891 PHY_EDGE_ROW_1_Left_17
*892 PHY_EDGE_ROW_1_Right_1
*893 PHY_EDGE_ROW_2_Left_18
*894 PHY_EDGE_ROW_2_Right_2
*895 PHY_EDGE_ROW_3_Left_19
*896 PHY_EDGE_ROW_3_Right_3
*897 PHY_EDGE_ROW_4_Left_20
*898 PHY_EDGE_ROW_4_Right_4
*899 PHY_EDGE_ROW_5_Left_21
*900 PHY_EDGE_ROW_5_Right_5
*901 PHY_EDGE_ROW_6_Left_22
*902 PHY_EDGE_ROW_6_Right_6
*903 PHY_EDGE_ROW_7_Left_23
*904 PHY_EDGE_ROW_7_Right_7
*905 PHY_EDGE_ROW_8_Left_24
*906 PHY_EDGE_ROW_8_Right_8
*907 PHY_EDGE_ROW_9_Left_25
*908 PHY_EDGE_ROW_9_Right_9
*909 TAP_TAPCELL_ROW_0_32
*910 TAP_TAPCELL_ROW_0_33
*911 TAP_TAPCELL_ROW_0_34
*912 TAP_TAPCELL_ROW_0_35
*913 TAP_TAPCELL_ROW_0_36
*914 TAP_TAPCELL_ROW_0_37
*915 TAP_TAPCELL_ROW_0_38
*916 TAP_TAPCELL_ROW_0_39
*917 TAP_TAPCELL_ROW_0_40
*918 TAP_TAPCELL_ROW_0_41
*919 TAP_TAPCELL_ROW_0_42
*920 TAP_TAPCELL_ROW_0_43
*921 TAP_TAPCELL_ROW_0_44
*922 TAP_TAPCELL_ROW_10_103
*923 TAP_TAPCELL_ROW_10_104
*924 TAP_TAPCELL_ROW_10_105
*925 TAP_TAPCELL_ROW_10_106
*926 TAP_TAPCELL_ROW_10_107
*927 TAP_TAPCELL_ROW_10_108
*928 TAP_TAPCELL_ROW_10_109
*929 TAP_TAPCELL_ROW_11_110
*930 TAP_TAPCELL_ROW_11_111
*931 TAP_TAPCELL_ROW_11_112
*932 TAP_TAPCELL_ROW_11_113
*933 TAP_TAPCELL_ROW_11_114
*934 TAP_TAPCELL_ROW_11_115
*935 TAP_TAPCELL_ROW_12_116
*936 TAP_TAPCELL_ROW_12_117
*937 TAP_TAPCELL_ROW_12_118
*938 TAP_TAPCELL_ROW_12_119
*939 TAP_TAPCELL_ROW_12_120
*940 TAP_TAPCELL_ROW_12_121
*941 TAP_TAPCELL_ROW_12_122
*942 TAP_TAPCELL_ROW_13_123
*943 TAP_TAPCELL_ROW_13_124
*944 TAP_TAPCELL_ROW_13_125
*945 TAP_TAPCELL_ROW_13_126
*946 TAP_TAPCELL_ROW_13_127
*947 TAP_TAPCELL_ROW_13_128
*948 TAP_TAPCELL_ROW_14_129
*949 TAP_TAPCELL_ROW_14_130
*950 TAP_TAPCELL_ROW_14_131
*951 TAP_TAPCELL_ROW_14_132
*952 TAP_TAPCELL_ROW_14_133
*953 TAP_TAPCELL_ROW_14_134
*954 TAP_TAPCELL_ROW_14_135
*955 TAP_TAPCELL_ROW_15_136
*956 TAP_TAPCELL_ROW_15_137
*957 TAP_TAPCELL_ROW_15_138
*958 TAP_TAPCELL_ROW_15_139
*959 TAP_TAPCELL_ROW_15_140
*960 TAP_TAPCELL_ROW_15_141
*961 TAP_TAPCELL_ROW_15_142
*962 TAP_TAPCELL_ROW_15_143
*963 TAP_TAPCELL_ROW_15_144
*964 TAP_TAPCELL_ROW_15_145
*965 TAP_TAPCELL_ROW_15_146
*966 TAP_TAPCELL_ROW_15_147
*967 TAP_TAPCELL_ROW_15_148
*968 TAP_TAPCELL_ROW_1_45
*969 TAP_TAPCELL_ROW_1_46
*970 TAP_TAPCELL_ROW_1_47
*971 TAP_TAPCELL_ROW_1_48
*972 TAP_TAPCELL_ROW_1_49
*973 TAP_TAPCELL_ROW_1_50
*974 TAP_TAPCELL_ROW_2_51
*975 TAP_TAPCELL_ROW_2_52
*976 TAP_TAPCELL_ROW_2_53
*977 TAP_TAPCELL_ROW_2_54
*978 TAP_TAPCELL_ROW_2_55
*979 TAP_TAPCELL_ROW_2_56
*980 TAP_TAPCELL_ROW_2_57
*981 TAP_TAPCELL_ROW_3_58
*982 TAP_TAPCELL_ROW_3_59
*983 TAP_TAPCELL_ROW_3_60
*984 TAP_TAPCELL_ROW_3_61
*985 TAP_TAPCELL_ROW_3_62
*986 TAP_TAPCELL_ROW_3_63
*987 TAP_TAPCELL_ROW_4_64
*988 TAP_TAPCELL_ROW_4_65
*989 TAP_TAPCELL_ROW_4_66
*990 TAP_TAPCELL_ROW_4_67
*991 TAP_TAPCELL_ROW_4_68
*992 TAP_TAPCELL_ROW_4_69
*993 TAP_TAPCELL_ROW_4_70
*994 TAP_TAPCELL_ROW_5_71
*995 TAP_TAPCELL_ROW_5_72
*996 TAP_TAPCELL_ROW_5_73
*997 TAP_TAPCELL_ROW_5_74
*998 TAP_TAPCELL_ROW_5_75
*999 TAP_TAPCELL_ROW_5_76
*1000 TAP_TAPCELL_ROW_6_77
*1001 TAP_TAPCELL_ROW_6_78
*1002 TAP_TAPCELL_ROW_6_79
*1003 TAP_TAPCELL_ROW_6_80
*1004 TAP_TAPCELL_ROW_6_81
*1005 TAP_TAPCELL_ROW_6_82
*1006 TAP_TAPCELL_ROW_6_83
*1007 TAP_TAPCELL_ROW_7_84
*1008 TAP_TAPCELL_ROW_7_85
*1009 TAP_TAPCELL_ROW_7_86
*1010 TAP_TAPCELL_ROW_7_87
*1011 TAP_TAPCELL_ROW_7_88
*1012 TAP_TAPCELL_ROW_7_89
*1013 TAP_TAPCELL_ROW_8_90
*1014 TAP_TAPCELL_ROW_8_91
*1015 TAP_TAPCELL_ROW_8_92
*1016 TAP_TAPCELL_ROW_8_93
*1017 TAP_TAPCELL_ROW_8_94
*1018 TAP_TAPCELL_ROW_8_95
*1019 TAP_TAPCELL_ROW_8_96
*1020 TAP_TAPCELL_ROW_9_100
*1021 TAP_TAPCELL_ROW_9_101
*1022 TAP_TAPCELL_ROW_9_102
*1023 TAP_TAPCELL_ROW_9_97
*1024 TAP_TAPCELL_ROW_9_98
*1025 TAP_TAPCELL_ROW_9_99
*1026 _000_
*1027 _001_
*1028 _002_
*1029 _003_
*1030 _004_
*1031 _005_
*1032 _006_
*1033 _007_
*1034 _008_
*1035 _009_
*1036 _010_
*1037 _011_
*1038 _012_
*1039 _013_
*1040 _014_
*1041 _015_
*1042 _016_
*1043 _017_
*1044 _018_
*1045 _019_
*1046 _020_
*1047 _021_
*1048 _022_
*1049 _023_
*1050 _024_
*1051 _025_
*1052 _026_
*1053 _027_
*1054 _028_
*1055 _029_
*1056 _030_
*1057 _031_
*1058 _032_
*1059 _033_
*1060 _034_
*1061 _035_
*1062 _036_
*1063 _037_
*1064 _038_
*1065 _039_
*1066 _040_
*1067 _041_
*1068 _042_
*1069 _043_
*1070 _044_
*1071 _045_
*1072 _046_
*1073 _047_
*1074 _048_
*1075 _049_
*1076 _050_
*1077 _051_
*1078 _052_
*1079 _053_
*1080 _054_
*1081 _055_
*1082 _056_
*1083 _057_
*1084 _058_
*1085 _059_
*1086 _060_
*1087 _061_
*1088 _062_
*1089 _063_
*1090 _064_
*1091 _065_
*1092 _066_
*1093 _067_
*1094 _068_
*1095 _069_
*1096 _070_
*1097 _071_
*1098 _072_
*1099 _073_
*1100 _074_
*1101 _075_
*1102 _076_
*1103 _077_
*1104 _078_
*1105 _079_
*1106 _080_
*1107 _081_
*1108 _082_
*1109 _083_
*1110 _084_
*1111 _085_
*1112 _086_
*1113 _087_
*1114 _088_
*1115 _089_
*1116 _090_
*1117 _091_
*1118 _092_
*1119 _093_
*1120 _094_
*1121 _095_
*1122 _096_
*1123 _097_
*1124 _098_
*1125 _099_
*1126 _100_
*1127 _101_
*1128 _102_
*1129 _103_
*1130 _104_
*1131 output1
*1132 output10
*1133 output100
*1134 output101
*1135 output102
*1136 output103
*1137 output104
*1138 output105
*1139 output11
*1140 output12
*1141 output13
*1142 output14
*1143 output15
*1144 output16
*1145 output17
*1146 output18
*1147 output19
*1148 output2
*1149 output20
*1150 output21
*1151 output22
*1152 output23
*1153 output24
*1154 output25
*1155 output26
*1156 output27
*1157 output28
*1158 output29
*1159 output3
*1160 output30
*1161 output31
*1162 output32
*1163 output33
*1164 output34
*1165 output35
*1166 output36
*1167 output37
*1168 output38
*1169 output39
*1170 output4
*1171 output40
*1172 output41
*1173 output42
*1174 output43
*1175 output44
*1176 output45
*1177 output46
*1178 output47
*1179 output48
*1180 output49
*1181 output5
*1182 output50
*1183 output51
*1184 output52
*1185 output53
*1186 output54
*1187 output55
*1188 output56
*1189 output57
*1190 output58
*1191 output59
*1192 output6
*1193 output60
*1194 output61
*1195 output62
*1196 output63
*1197 output64
*1198 output65
*1199 output66
*1200 output67
*1201 output68
*1202 output69
*1203 output7
*1204 output70
*1205 output71
*1206 output72
*1207 output73
*1208 output74
*1209 output75
*1210 output76
*1211 output77
*1212 output78
*1213 output79
*1214 output8
*1215 output80
*1216 output81
*1217 output82
*1218 output83
*1219 output84
*1220 output85
*1221 output86
*1222 output87
*1223 output88
*1224 output89
*1225 output9
*1226 output90
*1227 output91
*1228 output92
*1229 output93
*1230 output94
*1231 output95
*1232 output96
*1233 output97
*1234 output98
*1235 output99

*PORTS
FrameData[0] I
FrameData[10] I
FrameData[11] I
FrameData[12] I
FrameData[13] I
FrameData[14] I
FrameData[15] I
FrameData[16] I
FrameData[17] I
FrameData[18] I
FrameData[19] I
FrameData[1] I
FrameData[20] I
FrameData[21] I
FrameData[22] I
FrameData[23] I
FrameData[24] I
FrameData[25] I
FrameData[26] I
FrameData[27] I
FrameData[28] I
FrameData[29] I
FrameData[2] I
FrameData[30] I
FrameData[31] I
FrameData[3] I
FrameData[4] I
FrameData[5] I
FrameData[6] I
FrameData[7] I
FrameData[8] I
FrameData[9] I
FrameData_O[0] O
FrameData_O[10] O
FrameData_O[11] O
FrameData_O[12] O
FrameData_O[13] O
FrameData_O[14] O
FrameData_O[15] O
FrameData_O[16] O
FrameData_O[17] O
FrameData_O[18] O
FrameData_O[19] O
FrameData_O[1] O
FrameData_O[20] O
FrameData_O[21] O
FrameData_O[22] O
FrameData_O[23] O
FrameData_O[24] O
FrameData_O[25] O
FrameData_O[26] O
FrameData_O[27] O
FrameData_O[28] O
FrameData_O[29] O
FrameData_O[2] O
FrameData_O[30] O
FrameData_O[31] O
FrameData_O[3] O
FrameData_O[4] O
FrameData_O[5] O
FrameData_O[6] O
FrameData_O[7] O
FrameData_O[8] O
FrameData_O[9] O
FrameStrobe[0] I
FrameStrobe[10] I
FrameStrobe[11] I
FrameStrobe[12] I
FrameStrobe[13] I
FrameStrobe[14] I
FrameStrobe[15] I
FrameStrobe[16] I
FrameStrobe[17] I
FrameStrobe[18] I
FrameStrobe[19] I
FrameStrobe[1] I
FrameStrobe[2] I
FrameStrobe[3] I
FrameStrobe[4] I
FrameStrobe[5] I
FrameStrobe[6] I
FrameStrobe[7] I
FrameStrobe[8] I
FrameStrobe[9] I
FrameStrobe_O[0] O
FrameStrobe_O[10] O
FrameStrobe_O[11] O
FrameStrobe_O[12] O
FrameStrobe_O[13] O
FrameStrobe_O[14] O
FrameStrobe_O[15] O
FrameStrobe_O[16] O
FrameStrobe_O[17] O
FrameStrobe_O[18] O
FrameStrobe_O[19] O
FrameStrobe_O[1] O
FrameStrobe_O[2] O
FrameStrobe_O[3] O
FrameStrobe_O[4] O
FrameStrobe_O[5] O
FrameStrobe_O[6] O
FrameStrobe_O[7] O
FrameStrobe_O[8] O
FrameStrobe_O[9] O
N1BEG[0] O
N1BEG[1] O
N1BEG[2] O
N1BEG[3] O
N2BEG[0] O
N2BEG[1] O
N2BEG[2] O
N2BEG[3] O
N2BEG[4] O
N2BEG[5] O
N2BEG[6] O
N2BEG[7] O
N2BEGb[0] O
N2BEGb[1] O
N2BEGb[2] O
N2BEGb[3] O
N2BEGb[4] O
N2BEGb[5] O
N2BEGb[6] O
N2BEGb[7] O
N4BEG[0] O
N4BEG[10] O
N4BEG[11] O
N4BEG[12] O
N4BEG[13] O
N4BEG[14] O
N4BEG[15] O
N4BEG[1] O
N4BEG[2] O
N4BEG[3] O
N4BEG[4] O
N4BEG[5] O
N4BEG[6] O
N4BEG[7] O
N4BEG[8] O
N4BEG[9] O
NN4BEG[0] O
NN4BEG[10] O
NN4BEG[11] O
NN4BEG[12] O
NN4BEG[13] O
NN4BEG[14] O
NN4BEG[15] O
NN4BEG[1] O
NN4BEG[2] O
NN4BEG[3] O
NN4BEG[4] O
NN4BEG[5] O
NN4BEG[6] O
NN4BEG[7] O
NN4BEG[8] O
NN4BEG[9] O
S1END[0] I
S1END[1] I
S1END[2] I
S1END[3] I
S2END[0] I
S2END[1] I
S2END[2] I
S2END[3] I
S2END[4] I
S2END[5] I
S2END[6] I
S2END[7] I
S2MID[0] I
S2MID[1] I
S2MID[2] I
S2MID[3] I
S2MID[4] I
S2MID[5] I
S2MID[6] I
S2MID[7] I
S4END[0] I
S4END[10] I
S4END[11] I
S4END[12] I
S4END[13] I
S4END[14] I
S4END[15] I
S4END[1] I
S4END[2] I
S4END[3] I
S4END[4] I
S4END[5] I
S4END[6] I
S4END[7] I
S4END[8] I
S4END[9] I
SS4END[0] I
SS4END[10] I
SS4END[11] I
SS4END[12] I
SS4END[13] I
SS4END[14] I
SS4END[15] I
SS4END[1] I
SS4END[2] I
SS4END[3] I
SS4END[4] I
SS4END[5] I
SS4END[6] I
SS4END[7] I
SS4END[8] I
SS4END[9] I
UserCLK I
UserCLKo O

*D_NET *1 0.0603403
*CONN
*P FrameData[0] I
*I *1026:I I *D gf180mcu_fd_sc_mcu7t5v0__buf_2
*I *318:I I *D gf180mcu_fd_sc_mcu7t5v0__antenna
*CAP
1 FrameData[0] 0.00245401
2 *1026:I 0.000207967
3 *318:I 0.000296107
4 *1:53 0.00242284
5 *1:41 0.00370317
6 *1:19 0.0042384
7 *318:I *1131:I 0
8 *318:I *1140:I 0.00015738
9 *318:I *1154:I 0
10 *318:I *276:20 4.80213e-05
11 *1026:I *1154:I 0
12 *1026:I *298:30 4.73138e-05
13 *1:19 *2:17 0.00128402
14 *1:19 *10:23 2.64412e-05
15 *1:19 *12:19 0.000594311
16 *1:19 *17:15 0.00182094
17 *1:19 *20:15 0.000106908
18 *1:19 *20:27 0.00170467
19 *1:19 *26:9 0.000122516
20 *1:19 *65:27 0.000181944
21 *1:19 *83:21 0.000532143
22 *1:19 *225:18 2.76472e-05
23 *1:19 *234:24 0.000961603
24 *1:19 *249:20 0.00178899
25 *1:19 *266:20 0.000263452
26 *1:19 *305:24 0.00105989
27 *1:41 N2BEGb[2] 0.000263731
28 *1:41 *1134:I 0.000261
29 *1:41 *1194:I 0.000109069
30 *1:41 *1200:I 0.00208007
31 *1:41 *1218:I 0.00311646
32 *1:41 *1220:I 0.00215085
33 *1:41 *6:25 5.469e-05
34 *1:41 *14:23 0.00236617
35 *1:41 *18:13 0.000454897
36 *1:41 *24:17 1.95987e-05
37 *1:41 *72:63 2.63461e-05
38 *1:41 *82:31 6.27759e-05
39 *1:41 *184:51 5.9644e-05
40 *1:41 *192:21 3.70435e-05
41 *1:41 *204:25 0.00217896
42 *1:41 *207:29 0.000188241
43 *1:41 *246:24 0.000248879
44 *1:41 *277:90 0
45 *1:41 *294:24 0.0012256
46 *1:41 *309:24 1.9774e-05
47 *1:53 *1123:I 0.000262946
48 *1:53 *1133:I 0.00128561
49 *1:53 *1172:I 0.000293451
50 *1:53 *1179:I 0.00185846
51 *1:53 *3:57 2.54037e-05
52 *1:53 *5:73 0.000665714
53 *1:53 *68:55 0.000874545
54 *1:53 *75:47 0.00141788
55 *1:53 *79:21 2.50874e-05
56 *1:53 *79:33 0.00155903
57 *1:53 *178:25 0.00201818
58 *1:53 *186:19 1.71809e-05
59 *1:53 *205:33 0.000878802
60 *1:53 *254:34 0.00106665
61 *1:53 *276:20 0.000288235
62 *1:53 *284:20 0.00013537
63 *1:53 *291:34 2.76367e-05
64 *1:53 *298:30 0.000339312
65 *1:53 *303:46 0.00296483
66 *1:53 *311:28 0.00261097
67 *1:53 *313:22 0.00274685
68 *1:53 *314:24 3.71015e-06
*RES
1 FrameData[0] *1:19 48.108 
2 *1:19 *1:41 49.332 
3 *1:41 *1:53 47.1569 
4 *1:53 *318:I 6.90314 
5 *1:53 *1026:I 6.07114 
*END

*D_NET *2 0.0655443
*CONN
*P FrameData[10] I
*I *1036:I I *D gf180mcu_fd_sc_mcu7t5v0__buf_2
*I *328:I I *D gf180mcu_fd_sc_mcu7t5v0__antenna
*CAP
1 FrameData[10] 0.00206187
2 *1036:I 0.000188223
3 *328:I 4.30536e-05
4 *2:81 0.00145078
5 *2:71 0.00284166
6 *2:51 0.00348338
7 *2:17 0.0039231
8 *328:I *1174:I 2.38773e-05
9 *1036:I *1059:I 3.02654e-06
10 *1036:I *1141:I 7.44259e-05
11 *1036:I *1174:I 5.47431e-06
12 *1036:I *232:62 1.31507e-05
13 *2:17 *1120:I 1.36398e-06
14 *2:17 *1193:I 1.23278e-05
15 *2:17 *3:21 0.000590059
16 *2:17 *12:19 0
17 *2:17 *12:45 0.000306153
18 *2:17 *20:15 0.000340464
19 *2:17 *26:9 0.000179953
20 *2:17 *27:15 3.52062e-05
21 *2:17 *29:21 6.02261e-06
22 *2:17 *32:15 0.000659905
23 *2:17 *71:35 0.00756033
24 *2:17 *208:49 0.000427045
25 *2:17 *216:18 0.000237645
26 *2:17 *227:10 0.000700045
27 *2:17 *237:16 0.00144876
28 *2:51 *18:31 0.00102346
29 *2:51 *22:37 0.00137823
30 *2:51 *30:31 0.000257119
31 *2:51 *83:11 3.41231e-05
32 *2:51 *168:21 0.00387588
33 *2:51 *175:17 0.00194976
34 *2:51 *203:29 0.00406039
35 *2:51 *225:72 0.000112295
36 *2:51 *226:52 0.000252255
37 *2:51 *234:44 0.000462668
38 *2:51 *237:24 1.76825e-05
39 *2:51 *277:64 0.000376633
40 *2:51 *299:50 6.09144e-05
41 *2:71 *1179:I 3.43721e-06
42 *2:71 *10:83 1.2517e-06
43 *2:71 *20:47 3.57634e-06
44 *2:71 *28:39 0.000105527
45 *2:71 *30:51 3.34704e-05
46 *2:71 *68:21 0.00157459
47 *2:71 *70:29 0.00125211
48 *2:71 *71:31 0.00406903
49 *2:71 *78:101 2.87672e-05
50 *2:71 *80:37 0.000658033
51 *2:71 *187:23 1.28148e-05
52 *2:71 *194:41 0.00133798
53 *2:71 *197:45 0.000154158
54 *2:71 *221:16 3.57634e-06
55 *2:71 *228:12 0.000355286
56 *2:71 *229:16 3.35189e-05
57 *2:71 *241:16 6.4694e-06
58 *2:71 *254:34 4.74684e-05
59 *2:71 *262:30 0.00318006
60 *2:71 *266:42 0.000496729
61 *2:71 *313:22 6.11661e-05
62 *2:81 *397:I 0.000324073
63 *2:81 *1141:I 0.000331518
64 *2:81 *1178:I 0.000241809
65 *2:81 *1203:I 0.000103017
66 *2:81 *78:113 8.03193e-05
67 *2:81 *165:29 0.000276576
68 *2:81 *187:23 0.0019613
69 *2:81 *224:18 0.000114
70 *2:81 *240:16 0.00534855
71 *2:81 *258:20 0.00107945
72 *2:81 *278:24 0.000166391
73 *2:81 *303:24 0.000335526
74 *1:19 *2:17 0.00128402
*RES
1 FrameData[10] *2:17 49.64 
2 *2:17 *2:51 49.748 
3 *2:51 *2:71 41.972 
4 *2:71 *2:81 30.32 
5 *2:81 *328:I 9.312 
6 *2:81 *1036:I 10.352 
*END

*D_NET *3 0.0505321
*CONN
*P FrameData[11] I
*I *1037:I I *D gf180mcu_fd_sc_mcu7t5v0__buf_2
*I *329:I I *D gf180mcu_fd_sc_mcu7t5v0__antenna