*SPEF "ieee 1481-1999"
*DESIGN "N_term_SRAM"
*DATE "11:08:13 Friday November 28, 2025"
*VENDOR "The OpenROAD Project"
*PROGRAM "OpenROAD"
*VERSION "341650e72dad0dc8571822ff8c5d9c5e365327f7"
*DESIGN_FLOW "NAME_SCOPE LOCAL" "PIN_CAP NONE"
*DIVIDER /
*DELIMITER :
*BUS_DELIMITER []
*T_UNIT 1 NS
*C_UNIT 1 PF
*R_UNIT 1 OHM
*L_UNIT 1 HENRY

*NAME_MAP
*1 FrameData[0]
*2 FrameData[10]
*3 FrameData[11]
*4 FrameData[12]
*5 FrameData[13]
*6 FrameData[14]
*7 FrameData[15]
*8 FrameData[16]
*9 FrameData[17]
*10 FrameData[18]
*11 FrameData[19]
*12 FrameData[1]
*13 FrameData[20]
*14 FrameData[21]
*15 FrameData[22]
*16 FrameData[23]
*17 FrameData[24]
*18 FrameData[25]
*19 FrameData[26]
*20 FrameData[27]
*21 FrameData[28]
*22 FrameData[29]
*23 FrameData[2]
*24 FrameData[30]
*25 FrameData[31]
*26 FrameData[3]
*27 FrameData[4]
*28 FrameData[5]
*29 FrameData[6]
*30 FrameData[7]
*31 FrameData[8]
*32 FrameData[9]
*33 FrameData_O[0]
*34 FrameData_O[10]
*35 FrameData_O[11]
*36 FrameData_O[12]
*37 FrameData_O[13]
*38 FrameData_O[14]
*39 FrameData_O[15]
*40 FrameData_O[16]
*41 FrameData_O[17]
*42 FrameData_O[18]
*43 FrameData_O[19]
*44 FrameData_O[1]
*45 FrameData_O[20]
*46 FrameData_O[21]
*47 FrameData_O[22]
*48 FrameData_O[23]
*49 FrameData_O[24]
*50 FrameData_O[25]
*51 FrameData_O[26]
*52 FrameData_O[27]
*53 FrameData_O[28]
*54 FrameData_O[29]
*55 FrameData_O[2]
*56 FrameData_O[30]
*57 FrameData_O[31]
*58 FrameData_O[3]
*59 FrameData_O[4]
*60 FrameData_O[5]
*61 FrameData_O[6]
*62 FrameData_O[7]
*63 FrameData_O[8]
*64 FrameData_O[9]
*65 FrameStrobe[0]
*66 FrameStrobe[10]
*67 FrameStrobe[11]
*68 FrameStrobe[12]
*69 FrameStrobe[13]
*70 FrameStrobe[14]
*71 FrameStrobe[15]
*72 FrameStrobe[16]
*73 FrameStrobe[17]
*74 FrameStrobe[18]
*75 FrameStrobe[19]
*76 FrameStrobe[1]
*77 FrameStrobe[2]
*78 FrameStrobe[3]
*79 FrameStrobe[4]
*80 FrameStrobe[5]
*81 FrameStrobe[6]
*82 FrameStrobe[7]
*83 FrameStrobe[8]
*84 FrameStrobe[9]
*85 FrameStrobe_O[0]
*86 FrameStrobe_O[10]
*87 FrameStrobe_O[11]
*88 FrameStrobe_O[12]
*89 FrameStrobe_O[13]
*90 FrameStrobe_O[14]
*91 FrameStrobe_O[15]
*92 FrameStrobe_O[16]
*93 FrameStrobe_O[17]
*94 FrameStrobe_O[18]
*95 FrameStrobe_O[19]
*96 FrameStrobe_O[1]
*97 FrameStrobe_O[2]
*98 FrameStrobe_O[3]
*99 FrameStrobe_O[4]
*100 FrameStrobe_O[5]
*101 FrameStrobe_O[6]
*102 FrameStrobe_O[7]
*103 FrameStrobe_O[8]
*104 FrameStrobe_O[9]
*105 N1END[0]
*106 N1END[1]
*107 N1END[2]
*108 N1END[3]
*109 N2END[0]
*110 N2END[1]
*111 N2END[2]
*112 N2END[3]
*113 N2END[4]
*114 N2END[5]
*115 N2END[6]
*116 N2END[7]
*117 N2MID[0]
*118 N2MID[1]
*119 N2MID[2]
*120 N2MID[3]
*121 N2MID[4]
*122 N2MID[5]
*123 N2MID[6]
*124 N2MID[7]
*125 N4END[0]
*126 N4END[10]
*127 N4END[11]
*128 N4END[12]
*129 N4END[13]
*130 N4END[14]
*131 N4END[15]
*132 N4END[1]
*133 N4END[2]
*134 N4END[3]
*135 N4END[4]
*136 N4END[5]
*137 N4END[6]
*138 N4END[7]
*139 N4END[8]
*140 N4END[9]
*141 S1BEG[0]
*142 S1BEG[1]
*143 S1BEG[2]
*144 S1BEG[3]
*145 S2BEG[0]
*146 S2BEG[1]
*147 S2BEG[2]
*148 S2BEG[3]
*149 S2BEG[4]
*150 S2BEG[5]
*151 S2BEG[6]
*152 S2BEG[7]
*153 S2BEGb[0]
*154 S2BEGb[1]
*155 S2BEGb[2]
*156 S2BEGb[3]
*157 S2BEGb[4]
*158 S2BEGb[5]
*159 S2BEGb[6]
*160 S2BEGb[7]
*161 S4BEG[0]
*162 S4BEG[10]
*163 S4BEG[11]
*164 S4BEG[12]
*165 S4BEG[13]
*166 S4BEG[14]
*167 S4BEG[15]
*168 S4BEG[1]
*169 S4BEG[2]
*170 S4BEG[3]
*171 S4BEG[4]
*172 S4BEG[5]
*173 S4BEG[6]
*174 S4BEG[7]
*175 S4BEG[8]
*176 S4BEG[9]
*177 UserCLK
*178 UserCLKo
*181 net1
*182 net10
*183 net11
*184 net12
*185 net13
*186 net14
*187 net15
*188 net16
*189 net17
*190 net18
*191 net19
*192 net2
*193 net20
*194 net21
*195 net22
*196 net23
*197 net24
*198 net25
*199 net26
*200 net27
*201 net28
*202 net29
*203 net3
*204 net30
*205 net31
*206 net32
*207 net33
*208 net34
*209 net35
*210 net36
*211 net37
*212 net38
*213 net39
*214 net4
*215 net40
*216 net41
*217 net42
*218 net43
*219 net44
*220 net45
*221 net46
*222 net47
*223 net48
*224 net49
*225 net5
*226 net50
*227 net51
*228 net52
*229 net53
*230 net54
*231 net55
*232 net56
*233 net57
*234 net58
*235 net59
*236 net6
*237 net60
*238 net61
*239 net62
*240 net63
*241 net64
*242 net65
*243 net66
*244 net67
*245 net68
*246 net69
*247 net7
*248 net70
*249 net71
*250 net72
*251 net73
*252 net74
*253 net75
*254 net76
*255 net77
*256 net78
*257 net79
*258 net8
*259 net80
*260 net81
*261 net82
*262 net83
*263 net84
*264 net85
*265 net86
*266 net87
*267 net88
*268 net89
*269 net9
*270 FILLER_0_104
*271 FILLER_0_138
*272 FILLER_0_140
*273 FILLER_0_169
*274 FILLER_0_2
*275 FILLER_0_200
*276 FILLER_0_220
*277 FILLER_0_240
*278 FILLER_0_36
*279 FILLER_0_70
*280 FILLER_10_101
*281 FILLER_10_107
*282 FILLER_10_123
*283 FILLER_10_132
*284 FILLER_10_140
*285 FILLER_10_144
*286 FILLER_10_154
*287 FILLER_10_170
*288 FILLER_10_174
*289 FILLER_10_177
*290 FILLER_10_2
*291 FILLER_10_209
*292 FILLER_10_225
*293 FILLER_10_229
*294 FILLER_10_247
*295 FILLER_10_34
*296 FILLER_10_37
*297 FILLER_10_69
*298 FILLER_10_93
*299 FILLER_11_104
*300 FILLER_11_120
*301 FILLER_11_132
*302 FILLER_11_142
*303 FILLER_11_152
*304 FILLER_11_184
*305 FILLER_11_2
*306 FILLER_11_200
*307 FILLER_11_208
*308 FILLER_11_212
*309 FILLER_11_220
*310 FILLER_11_224
*311 FILLER_11_226
*312 FILLER_11_66
*313 FILLER_11_72
*314 FILLER_12_101
*315 FILLER_12_107
*316 FILLER_12_123
*317 FILLER_12_131
*318 FILLER_12_141
*319 FILLER_12_151
*320 FILLER_12_167
*321 FILLER_12_177
*322 FILLER_12_2
*323 FILLER_12_209
*324 FILLER_12_225
*325 FILLER_12_229
*326 FILLER_12_247
*327 FILLER_12_34
*328 FILLER_12_37
*329 FILLER_13_104
*330 FILLER_13_112
*331 FILLER_13_138
*332 FILLER_13_142
*333 FILLER_13_152
*334 FILLER_13_184
*335 FILLER_13_2
*336 FILLER_13_200
*337 FILLER_13_208
*338 FILLER_13_212
*339 FILLER_13_66
*340 FILLER_13_72
*341 FILLER_14_101
*342 FILLER_14_107
*343 FILLER_14_131
*344 FILLER_14_157
*345 FILLER_14_173
*346 FILLER_14_177
*347 FILLER_14_193
*348 FILLER_14_2
*349 FILLER_14_209
*350 FILLER_14_247
*351 FILLER_14_34
*352 FILLER_14_37
*353 FILLER_14_53
*354 FILLER_14_61
*355 FILLER_14_77
*356 FILLER_14_85
*357 FILLER_15_10
*358 FILLER_15_104
*359 FILLER_15_146
*360 FILLER_15_169
*361 FILLER_15_2
*362 FILLER_15_200
*363 FILLER_15_206
*364 FILLER_15_235
*365 FILLER_15_237
*366 FILLER_15_240
*367 FILLER_15_242
*368 FILLER_15_257
*369 FILLER_15_265
*370 FILLER_15_36
*371 FILLER_15_65
*372 FILLER_15_67
*373 FILLER_15_70
*374 FILLER_1_142
*375 FILLER_1_2
*376 FILLER_1_207
*377 FILLER_1_209
*378 FILLER_1_226
*379 FILLER_1_66
*380 FILLER_1_72
*381 FILLER_2_107
*382 FILLER_2_2
*383 FILLER_2_227
*384 FILLER_2_247
*385 FILLER_2_34
*386 FILLER_2_37
*387 FILLER_2_45
*388 FILLER_2_49
*389 FILLER_2_51
*390 FILLER_2_68
*391 FILLER_2_72
*392 FILLER_3_150
*393 FILLER_3_2
*394 FILLER_3_207
*395 FILLER_3_209
*396 FILLER_3_220
*397 FILLER_3_224
*398 FILLER_3_226
*399 FILLER_3_66
*400 FILLER_3_72
*401 FILLER_3_76
*402 FILLER_3_86
*403 FILLER_3_94
*404 FILLER_4_107
*405 FILLER_4_145
*406 FILLER_4_154
*407 FILLER_4_156
*408 FILLER_4_171
*409 FILLER_4_2
*410 FILLER_4_221
*411 FILLER_4_237
*412 FILLER_4_247
*413 FILLER_4_34
*414 FILLER_4_37
*415 FILLER_4_69
*416 FILLER_4_85
*417 FILLER_4_94
*418 FILLER_4_96
*419 FILLER_5_104
*420 FILLER_5_112
*421 FILLER_5_114
*422 FILLER_5_123
*423 FILLER_5_142
*424 FILLER_5_168
*425 FILLER_5_2
*426 FILLER_5_205
*427 FILLER_5_209
*428 FILLER_5_220
*429 FILLER_5_236
*430 FILLER_5_240
*431 FILLER_5_66
*432 FILLER_5_72
*433 FILLER_6_101
*434 FILLER_6_107
*435 FILLER_6_115
*436 FILLER_6_135
*437 FILLER_6_147
*438 FILLER_6_177
*439 FILLER_6_194
*440 FILLER_6_2
*441 FILLER_6_202
*442 FILLER_6_206
*443 FILLER_6_216
*444 FILLER_6_232
*445 FILLER_6_236
*446 FILLER_6_34
*447 FILLER_6_37
*448 FILLER_7_104
*449 FILLER_7_112
*450 FILLER_7_116
*451 FILLER_7_126
*452 FILLER_7_130
*453 FILLER_7_139
*454 FILLER_7_142
*455 FILLER_7_151
*456 FILLER_7_160
*457 FILLER_7_164
*458 FILLER_7_182
*459 FILLER_7_190
*460 FILLER_7_2
*461 FILLER_7_200
*462 FILLER_7_208
*463 FILLER_7_212
*464 FILLER_7_221
*465 FILLER_7_229
*466 FILLER_7_66
*467 FILLER_7_72
*468 FILLER_8_107
*469 FILLER_8_131
*470 FILLER_8_147
*471 FILLER_8_151
*472 FILLER_8_161
*473 FILLER_8_170
*474 FILLER_8_174
*475 FILLER_8_177
*476 FILLER_8_181
*477 FILLER_8_183
*478 FILLER_8_192
*479 FILLER_8_2
*480 FILLER_8_204
*481 FILLER_8_236
*482 FILLER_8_244
*483 FILLER_8_34
*484 FILLER_8_37
*485 FILLER_8_69
*486 FILLER_8_77
*487 FILLER_8_89
*488 FILLER_9_104
*489 FILLER_9_108
*490 FILLER_9_118
*491 FILLER_9_120
*492 FILLER_9_129
*493 FILLER_9_139
*494 FILLER_9_142
*495 FILLER_9_152
*496 FILLER_9_160
*497 FILLER_9_162
*498 FILLER_9_187
*499 FILLER_9_195
*500 FILLER_9_2
*501 FILLER_9_205
*502 FILLER_9_209
*503 FILLER_9_212
*504 FILLER_9_228
*505 FILLER_9_230
*506 FILLER_9_239
*507 FILLER_9_66
*508 FILLER_9_72
*509 PHY_EDGE_ROW_0_Left_16
*510 PHY_EDGE_ROW_0_Right_0
*511 PHY_EDGE_ROW_10_Left_26
*512 PHY_EDGE_ROW_10_Right_10
*513 PHY_EDGE_ROW_11_Left_27
*514 PHY_EDGE_ROW_11_Right_11
*515 PHY_EDGE_ROW_12_Left_28
*516 PHY_EDGE_ROW_12_Right_12
*517 PHY_EDGE_ROW_13_Left_29
*518 PHY_EDGE_ROW_13_Right_13
*519 PHY_EDGE_ROW_14_Left_30
*520 PHY_EDGE_ROW_14_Right_14
*521 PHY_EDGE_ROW_15_Left_31
*522 PHY_EDGE_ROW_15_Right_15
*523 PHY_EDGE_ROW_1_Left_17
*524 PHY_EDGE_ROW_1_Right_1
*525 PHY_EDGE_ROW_2_Left_18
*526 PHY_EDGE_ROW_2_Right_2
*527 PHY_EDGE_ROW_3_Left_19
*528 PHY_EDGE_ROW_3_Right_3
*529 PHY_EDGE_ROW_4_Left_20
*530 PHY_EDGE_ROW_4_Right_4
*531 PHY_EDGE_ROW_5_Left_21
*532 PHY_EDGE_ROW_5_Right_5
*533 PHY_EDGE_ROW_6_Left_22
*534 PHY_EDGE_ROW_6_Right_6
*535 PHY_EDGE_ROW_7_Left_23
*536 PHY_EDGE_ROW_7_Right_7
*537 PHY_EDGE_ROW_8_Left_24
*538 PHY_EDGE_ROW_8_Right_8
*539 PHY_EDGE_ROW_9_Left_25
*540 PHY_EDGE_ROW_9_Right_9
*541 TAP_TAPCELL_ROW_0_32
*542 TAP_TAPCELL_ROW_0_33
*543 TAP_TAPCELL_ROW_0_34
*544 TAP_TAPCELL_ROW_0_35
*545 TAP_TAPCELL_ROW_0_36
*546 TAP_TAPCELL_ROW_0_37
*547 TAP_TAPCELL_ROW_0_38
*548 TAP_TAPCELL_ROW_10_70
*549 TAP_TAPCELL_ROW_10_71
*550 TAP_TAPCELL_ROW_10_72
*551 TAP_TAPCELL_ROW_10_73
*552 TAP_TAPCELL_ROW_11_74
*553 TAP_TAPCELL_ROW_11_75
*554 TAP_TAPCELL_ROW_11_76
*555 TAP_TAPCELL_ROW_12_77
*556 TAP_TAPCELL_ROW_12_78
*557 TAP_TAPCELL_ROW_12_79
*558 TAP_TAPCELL_ROW_12_80
*559 TAP_TAPCELL_ROW_13_81
*560 TAP_TAPCELL_ROW_13_82
*561 TAP_TAPCELL_ROW_13_83
*562 TAP_TAPCELL_ROW_14_84
*563 TAP_TAPCELL_ROW_14_85
*564 TAP_TAPCELL_ROW_14_86
*565 TAP_TAPCELL_ROW_14_87
*566 TAP_TAPCELL_ROW_15_88
*567 TAP_TAPCELL_ROW_15_89
*568 TAP_TAPCELL_ROW_15_90
*569 TAP_TAPCELL_ROW_15_91
*570 TAP_TAPCELL_ROW_15_92
*571 TAP_TAPCELL_ROW_15_93
*572 TAP_TAPCELL_ROW_15_94
*573 TAP_TAPCELL_ROW_1_39
*574 TAP_TAPCELL_ROW_1_40
*575 TAP_TAPCELL_ROW_1_41
*576 TAP_TAPCELL_ROW_2_42
*577 TAP_TAPCELL_ROW_2_43
*578 TAP_TAPCELL_ROW_2_44
*579 TAP_TAPCELL_ROW_2_45
*580 TAP_TAPCELL_ROW_3_46
*581 TAP_TAPCELL_ROW_3_47
*582 TAP_TAPCELL_ROW_3_48
*583 TAP_TAPCELL_ROW_4_49
*584 TAP_TAPCELL_ROW_4_50
*585 TAP_TAPCELL_ROW_4_51
*586 TAP_TAPCELL_ROW_4_52
*587 TAP_TAPCELL_ROW_5_53
*588 TAP_TAPCELL_ROW_5_54
*589 TAP_TAPCELL_ROW_5_55
*590 TAP_TAPCELL_ROW_6_56
*591 TAP_TAPCELL_ROW_6_57
*592 TAP_TAPCELL_ROW_6_58
*593 TAP_TAPCELL_ROW_6_59
*594 TAP_TAPCELL_ROW_7_60
*595 TAP_TAPCELL_ROW_7_61
*596 TAP_TAPCELL_ROW_7_62
*597 TAP_TAPCELL_ROW_8_63
*598 TAP_TAPCELL_ROW_8_64
*599 TAP_TAPCELL_ROW_8_65
*600 TAP_TAPCELL_ROW_8_66
*601 TAP_TAPCELL_ROW_9_67
*602 TAP_TAPCELL_ROW_9_68
*603 TAP_TAPCELL_ROW_9_69
*604 _00_
*605 _01_
*606 _02_
*607 _03_
*608 _04_
*609 _05_
*610 _06_
*611 _07_
*612 _08_
*613 _09_
*614 _10_
*615 _11_
*616 _12_
*617 _13_
*618 _14_
*619 _15_
*620 _16_
*621 _17_
*622 _18_
*623 _19_
*624 _20_
*625 _21_
*626 _22_
*627 _23_
*628 _24_
*629 _25_
*630 _26_
*631 _27_
*632 _28_
*633 _29_
*634 _30_
*635 _31_
*636 _32_
*637 _33_
*638 _34_
*639 _35_
*640 _36_
*641 _37_
*642 _38_
*643 _39_
*644 _40_
*645 _41_
*646 _42_
*647 _43_
*648 _44_
*649 _45_
*650 _46_
*651 _47_
*652 _48_
*653 _49_
*654 _50_
*655 _51_
*656 _52_
*657 _53_
*658 _54_
*659 _55_
*660 _56_
*661 _57_
*662 _58_
*663 _59_
*664 _60_
*665 _61_
*666 _62_
*667 _63_
*668 _64_
*669 _65_
*670 _66_
*671 _67_
*672 _68_
*673 _69_
*674 _70_
*675 _71_
*676 _72_
*677 _73_
*678 _74_
*679 _75_
*680 _76_
*681 _77_
*682 _78_
*683 _79_
*684 _80_
*685 _81_
*686 _82_
*687 _83_
*688 _84_
*689 _85_
*690 _86_
*691 _87_
*692 _88_
*693 output1
*694 output10
*695 output11
*696 output12
*697 output13
*698 output14
*699 output15
*700 output16
*701 output17
*702 output18
*703 output19
*704 output2
*705 output20
*706 output21
*707 output22
*708 output23
*709 output24
*710 output25
*711 output26
*712 output27
*713 output28
*714 output29
*715 output3
*716 output30
*717 output31
*718 output32
*719 output33
*720 output34
*721 output35
*722 output36
*723 output37
*724 output38
*725 output39
*726 output4
*727 output40
*728 output41
*729 output42
*730 output43
*731 output44
*732 output45
*733 output46
*734 output47
*735 output48
*736 output49
*737 output5
*738 output50
*739 output51
*740 output52
*741 output53
*742 output54
*743 output55
*744 output56
*745 output57
*746 output58
*747 output59
*748 output6
*749 output60
*750 output61
*751 output62
*752 output63
*753 output64
*754 output65
*755 output66
*756 output67
*757 output68
*758 output69
*759 output7
*760 output70
*761 output71
*762 output72
*763 output73
*764 output74
*765 output75
*766 output76
*767 output77
*768 output78
*769 output79
*770 output8
*771 output80
*772 output81
*773 output82
*774 output83
*775 output84
*776 output85
*777 output86
*778 output87
*779 output88
*780 output89
*781 output9

*PORTS
FrameData[0] I
FrameData[10] I
FrameData[11] I
FrameData[12] I
FrameData[13] I
FrameData[14] I
FrameData[15] I
FrameData[16] I
FrameData[17] I
FrameData[18] I
FrameData[19] I
FrameData[1] I
FrameData[20] I
FrameData[21] I
FrameData[22] I
FrameData[23] I
FrameData[24] I
FrameData[25] I
FrameData[26] I
FrameData[27] I
FrameData[28] I
FrameData[29] I
FrameData[2] I
FrameData[30] I
FrameData[31] I
FrameData[3] I
FrameData[4] I
FrameData[5] I
FrameData[6] I
FrameData[7] I
FrameData[8] I
FrameData[9] I
FrameData_O[0] O
FrameData_O[10] O
FrameData_O[11] O
FrameData_O[12] O
FrameData_O[13] O
FrameData_O[14] O
FrameData_O[15] O
FrameData_O[16] O
FrameData_O[17] O
FrameData_O[18] O
FrameData_O[19] O
FrameData_O[1] O
FrameData_O[20] O
FrameData_O[21] O
FrameData_O[22] O
FrameData_O[23] O
FrameData_O[24] O
FrameData_O[25] O
FrameData_O[26] O
FrameData_O[27] O
FrameData_O[28] O
FrameData_O[29] O
FrameData_O[2] O
FrameData_O[30] O
FrameData_O[31] O
FrameData_O[3] O
FrameData_O[4] O
FrameData_O[5] O
FrameData_O[6] O
FrameData_O[7] O
FrameData_O[8] O
FrameData_O[9] O
FrameStrobe[0] I
FrameStrobe[10] I
FrameStrobe[11] I
FrameStrobe[12] I
FrameStrobe[13] I
FrameStrobe[14] I
FrameStrobe[15] I
FrameStrobe[16] I
FrameStrobe[17] I
FrameStrobe[18] I
FrameStrobe[19] I
FrameStrobe[1] I
FrameStrobe[2] I
FrameStrobe[3] I
FrameStrobe[4] I
FrameStrobe[5] I
FrameStrobe[6] I
FrameStrobe[7] I
FrameStrobe[8] I
FrameStrobe[9] I
FrameStrobe_O[0] O
FrameStrobe_O[10] O
FrameStrobe_O[11] O
FrameStrobe_O[12] O
FrameStrobe_O[13] O
FrameStrobe_O[14] O
FrameStrobe_O[15] O
FrameStrobe_O[16] O
FrameStrobe_O[17] O
FrameStrobe_O[18] O
FrameStrobe_O[19] O
FrameStrobe_O[1] O
FrameStrobe_O[2] O
FrameStrobe_O[3] O
FrameStrobe_O[4] O
FrameStrobe_O[5] O
FrameStrobe_O[6] O
FrameStrobe_O[7] O
FrameStrobe_O[8] O
FrameStrobe_O[9] O
N1END[0] I
N1END[1] I
N1END[2] I
N1END[3] I
N2END[0] I
N2END[1] I
N2END[2] I
N2END[3] I
N2END[4] I
N2END[5] I
N2END[6] I
N2END[7] I
N2MID[0] I
N2MID[1] I
N2MID[2] I
N2MID[3] I
N2MID[4] I
N2MID[5] I
N2MID[6] I
N2MID[7] I
N4END[0] I
N4END[10] I
N4END[11] I
N4END[12] I
N4END[13] I
N4END[14] I
N4END[15] I
N4END[1] I
N4END[2] I
N4END[3] I
N4END[4] I
N4END[5] I
N4END[6] I
N4END[7] I
N4END[8] I
N4END[9] I
S1BEG[0] O
S1BEG[1] O
S1BEG[2] O
S1BEG[3] O
S2BEG[0] O
S2BEG[1] O
S2BEG[2] O
S2BEG[3] O
S2BEG[4] O
S2BEG[5] O
S2BEG[6] O
S2BEG[7] O
S2BEGb[0] O
S2BEGb[1] O
S2BEGb[2] O
S2BEGb[3] O
S2BEGb[4] O
S2BEGb[5] O
S2BEGb[6] O
S2BEGb[7] O
S4BEG[0] O
S4BEG[10] O
S4BEG[11] O
S4BEG[12] O
S4BEG[13] O
S4BEG[14] O
S4BEG[15] O
S4BEG[1] O
S4BEG[2] O
S4BEG[3] O
S4BEG[4] O
S4BEG[5] O
S4BEG[6] O
S4BEG[7] O
S4BEG[8] O
S4BEG[9] O
UserCLK I
UserCLKo O

*D_NET *1 0.00874286
*CONN
*P FrameData[0] I
*I *604:I I *D gf180mcu_fd_sc_mcu7t5v0__buf_2
*CAP
1 FrameData[0] 0.00233214
2 *604:I 0.00233214
3 *604:I *658:I 0
4 *604:I *659:I 0.00015745
5 *604:I *662:I 0.00019146
6 *604:I *664:I 0.00151492
7 *604:I *681:I 1.93526e-05
8 *604:I *683:I 0.000194469
9 *604:I *693:I 8.02751e-06
10 *604:I *741:I 0
11 *604:I *743:I 8.12833e-05
12 *604:I *747:I 4.24889e-05
13 *604:I *750:I 0.000309795
14 *604:I *751:I 1.02578e-05
15 *604:I *774:I 0.000885302
16 *604:I *12:17 0.000390584
17 *604:I *23:17 0.000186721
18 *604:I *27:19 8.6466e-05
19 *604:I *30:27 0
*RES
1 FrameData[0] *604:I 37.874 
*END

*D_NET *2 0.0114138
*CONN
*P FrameData[10] I
*I *614:I I *D gf180mcu_fd_sc_mcu7t5v0__buf_2
*CAP
1 FrameData[10] 0.0015663
2 *614:I 0.0015663
3 *614:I *613:I 0.000742653
4 *614:I *616:I 0
5 *614:I *666:I 0.00068707
6 *614:I *690:I 0.000172895
7 *614:I *704:I 1.15244e-05
8 *614:I *716:I 0.000147305
9 *614:I *745:I 0.00480835
10 *614:I *3:23 5.23463e-05
11 *614:I *206:26 0.00165908
*RES
1 FrameData[10] *614:I 31.306 
*END

*D_NET *3 0.0169656
*CONN
*P FrameData[11] I
*I *615:I I *D gf180mcu_fd_sc_mcu7t5v0__buf_2
*CAP
1 FrameData[11] 0.0019445
2 *615:I 7.09293e-05
3 *3:23 0.00201543
4 *615:I *667:I 0.000211706
5 *615:I *671:I 0.00027438
6 *615:I *683:I 1.77852e-05
7 *615:I *684:I 0.000589933
8 *615:I *29:25 0.00194539
9 *615:I *30:27 0.000265446
10 *3:23 *616:I 4.67109e-05
11 *3:23 *617:I 0
12 *3:23 *618:I 1.72918e-05
13 *3:23 *620:I 0
14 *3:23 *621:I 0.000190363
15 *3:23 *622:I 0.00550586
16 *3:23 *623:I 0.00347385
17 *3:23 *643:I 0
18 *3:23 *644:I 0.000113807
19 *3:23 *676:I 1.43494e-05
20 *3:23 *739:I 0.000215472
21 *3:23 *28:15 0
22 *614:I *3:23 5.23463e-05
*RES
1 FrameData[11] *3:23 45.322 
2 *3:23 *615:I 13.788 
*END

*D_NET *4 0.0140717
*CONN
*P FrameData[12] I
*I *616:I I *D gf180mcu_fd_sc_mcu7t5v0__buf_2
*CAP
1 FrameData[12] 0.00162009
2 *616:I 0.00162009
3 *616:I *617:I 0.000668544
4 *616:I *619:I 0.00253158
5 *616:I *666:I 0.00068652
6 *616:I *667:I 0.000922816
7 *616:I *672:I 0.00374065
8 *616:I *674:I 0.00121393
9 *616:I *29:25 0.000569196
10 *616:I *30:27 0.000170029
11 *616:I *125:17 0.000187013
12 *616:I *134:29 9.45854e-05
13 *614:I *616:I 0
14 *3:23 *616:I 4.67109e-05
*RES
1 FrameData[12] *616:I 43.726 
*END

*D_NET *5 0.00765973
*CONN
*P FrameData[13] I
*I *617:I I *D gf180mcu_fd_sc_mcu7t5v0__buf_2
*CAP
1 FrameData[13] 0.00158747
2 *617:I 0.00158747
3 *617:I *618:I 0.00124397
4 *617:I *667:I 0.000760941
5 *617:I *683:I 0.000810176
6 *617:I *687:I 0.000940241
7 *617:I *712:I 0
8 *617:I *753:I 0
9 *617:I *763:I 6.09201e-05
10 *616:I *617:I 0.000668544
11 *3:23 *617:I 0
*RES
1 FrameData[13] *617:I 30.014 
*END

*D_NET *6 0.00718305
*CONN
*P FrameData[14] I
*I *618:I I *D gf180mcu_fd_sc_mcu7t5v0__buf_2
*CAP
1 FrameData[14] 0.00127163
2 *618:I 0.00127163
3 *618:I *619:I 0.00126849
4 *618:I *674:I 0.00155338
5 *618:I *687:I 0.000545125
6 *618:I *748:I 1.15312e-05
7 *617:I *618:I 0.00124397
8 *3:23 *618:I 1.72918e-05
*RES
1 FrameData[14] *618:I 28.722 
*END

*D_NET *7 0.0109114
*CONN
*P FrameData[15] I
*I *619:I I *D gf180mcu_fd_sc_mcu7t5v0__buf_2
*CAP
1 FrameData[15] 0.00103362
2 *619:I 0.00103362
3 *619:I *620:I 0.00104355
4 *619:I *672:I 0.000386379
5 *619:I *674:I 0.00349997
6 *619:I *675:I 0.000114183
7 *619:I *27:19 0
8 *616:I *619:I 0.00253158
9 *618:I *619:I 0.00126849
*RES
1 FrameData[15] *619:I 29.482 
*END

*D_NET *8 0.0115294
*CONN
*P FrameData[16] I
*I *620:I I *D gf180mcu_fd_sc_mcu7t5v0__buf_2
*CAP
1 FrameData[16] 0.000903437
2 *620:I 0.000903437
3 *620:I *621:I 0.000365638
4 *620:I *644:I 1.72413e-05
5 *620:I *673:I 0.00327558
6 *620:I *675:I 0.00344571
7 *620:I *12:17 0.00155212
8 *620:I *27:19 0
9 *620:I *247:26 2.27298e-05
10 *619:I *620:I 0.00104355
11 *3:23 *620:I 0
*RES
1 FrameData[16] *620:I 29.938 
*END

*D_NET *9 0.0100395
*CONN
*P FrameData[17] I
*I *621:I I *D gf180mcu_fd_sc_mcu7t5v0__buf_2
*CAP
1 FrameData[17] 0.00112315
2 *621:I 0.00112315
3 *621:I *609:I 0
4 *621:I *622:I 0.00155555
5 *621:I *640:I 0
6 *621:I *644:I 0.00183053
7 *621:I *673:I 0.000109902
8 *621:I *739:I 8.10997e-06
9 *621:I *781:I 1.15244e-05
10 *621:I *12:17 0.00372157
11 *620:I *621:I 0.000365638
12 *3:23 *621:I 0.000190363
*RES
1 FrameData[17] *621:I 32.826 
*END

*D_NET *10 0.012075
*CONN
*P FrameData[18] I
*I *622:I I *D gf180mcu_fd_sc_mcu7t5v0__buf_2
*CAP
1 FrameData[18] 0.000860291
2 *622:I 0.000860291
3 *622:I *623:I 4.24146e-05
4 *622:I *642:I 0.00158987
5 *622:I *27:19 0.00166069
6 *621:I *622:I 0.00155555
7 *3:23 *622:I 0.00550586
*RES
1 FrameData[18] *622:I 39.014 
*END

*D_NET *11 0.0119309
*CONN
*P FrameData[19] I
*I *623:I I *D gf180mcu_fd_sc_mcu7t5v0__buf_2
*CAP
1 FrameData[19] 0.00102519
2 *623:I 0.00102519
3 *623:I *609:I 5.4811e-06
4 *623:I *624:I 0.000634907
5 *623:I *642:I 0.000102192
6 *623:I *644:I 2.31805e-05
7 *623:I *739:I 0.000660137
8 *623:I *770:I 1.98965e-05
9 *623:I *27:19 0.000614234
10 *623:I *134:29 0.00355251
11 *623:I *220:20 0.000299126
12 *623:I *247:26 0.000452609
13 *622:I *623:I 4.24146e-05
14 *3:23 *623:I 0.00347385
*RES
1 FrameData[19] *623:I 33.13 
*END

*D_NET *12 0.0158665
*CONN
*P FrameData[1] I
*I *605:I I *D gf180mcu_fd_sc_mcu7t5v0__buf_2
*CAP
1 FrameData[1] 0.00265288
2 *605:I 0
3 *12:17 0.00265288
4 *12:17 *640:I 4.58023e-05
5 *12:17 *673:I 0.00440073
6 *12:17 *712:I 6.50326e-05
7 *12:17 *726:I 0
8 *12:17 *23:17 0.000384949
9 *12:17 *27:19 0
10 *12:17 *29:25 0
11 *604:I *12:17 0.000390584
12 *620:I *12:17 0.00155212
13 *621:I *12:17 0.00372157
*RES
1 FrameData[1] *12:17 47.51 
2 *12:17 *605:I 4.5 
*END

*D_NET *13 0.0168072
*CONN
*P FrameData[20] I
*I *624:I I *D gf180mcu_fd_sc_mcu7t5v0__buf_2
*CAP
1 FrameData[20] 0.00072667
2 *624:I 0.00072667
3 *624:I *625:I 0.00020348
4 *624:I *642:I 0.000425451
5 *624:I *740:I 0
6 *624:I *27:19 0.00530834
7 *624:I *28:15 0.00862841
8 *624:I *220:20 0.000153245
9 *623:I *624:I 0.000634907
*RES
1 FrameData[20] *624:I 33.13 
*END

*D_NET *14 0.00862601
*CONN
*P FrameData[21] I
*I *625:I I *D gf180mcu_fd_sc_mcu7t5v0__buf_2
*CAP
1 FrameData[21] 0.000961722
2 *625:I 0.000961722
3 *625:I *626:I 0.001721
4 *625:I *641:I 0.00215957
5 *625:I *709:I 5.71374e-05
6 *625:I *739:I 2.11524e-05
7 *625:I *28:15 0.000239691
8 *625:I *268:18 0.00230053
9 *624:I *625:I 0.00020348
*RES
1 FrameData[21] *625:I 29.634 
*END

*D_NET *15 0.00940402
*CONN
*P FrameData[22] I
*I *626:I I *D gf180mcu_fd_sc_mcu7t5v0__buf_2
*CAP
1 FrameData[22] 0.00124888
2 *626:I 0.00124888
3 *626:I *627:I 0.00124946
4 *626:I *641:I 0.000574513
5 *626:I *694:I 0.000158886
6 *626:I *734:I 4.61499e-05
7 *626:I *23:17 0.00315624
8 *626:I *220:20 0
9 *625:I *626:I 0.001721
*RES
1 FrameData[22] *626:I 31.154 
*END

*D_NET *16 0.00799993
*CONN
*P FrameData[23] I
*I *627:I I *D gf180mcu_fd_sc_mcu7t5v0__buf_2
*CAP
1 FrameData[23] 0.00129286
2 *627:I 0.00129286
3 *627:I *628:I 0.00183578
4 *627:I *739:I 2.32795e-05
5 *627:I *23:17 0.00230568
6 *626:I *627:I 0.00124946
*RES
1 FrameData[23] *627:I 28.874 
*END

*D_NET *17 0.0111785
*CONN
*P FrameData[24] I
*I *628:I I *D gf180mcu_fd_sc_mcu7t5v0__buf_2
*CAP
1 FrameData[24] 0.00107338
2 *628:I 0.00107338
3 *628:I *629:I 0.000563531
4 *628:I *630:I 0.000650121
5 *628:I *702:I 0.00101614
6 *628:I *733:I 0.00431662
7 *628:I *740:I 1.4689e-05
8 *628:I *23:17 0.000121123
9 *628:I *220:20 0.000513693
10 *627:I *628:I 0.00183578
*RES
1 FrameData[24] *628:I 32.218 
*END

*D_NET *18 0.014417
*CONN
*P FrameData[25] I
*I *629:I I *D gf180mcu_fd_sc_mcu7t5v0__buf_2
*CAP
1 FrameData[25] 0.00036642
2 *629:I 0.00036642
3 *629:I *630:I 0.0058955
4 *629:I *632:I 0.00715473
5 *629:I *635:I 3.19219e-05
6 *629:I *709:I 8.81341e-06
7 *629:I *739:I 2.96621e-05
8 *628:I *629:I 0.000563531
*RES
1 FrameData[25] *629:I 28.874 
*END

*D_NET *19 0.0142075
*CONN
*P FrameData[26] I
*I *630:I I *D gf180mcu_fd_sc_mcu7t5v0__buf_2
*CAP
1 FrameData[26] 0.000837806
2 *630:I 0.000837806
3 *630:I *631:I 0.000469463
4 *630:I *632:I 0.000229139
5 *630:I *635:I 0.00102304
6 *630:I *702:I 2.22758e-05
7 *630:I *709:I 8.02751e-06
8 *630:I *734:I 0.000140167
9 *630:I *220:20 0.00409416
10 *628:I *630:I 0.000650121
11 *629:I *630:I 0.0058955
*RES
1 FrameData[26] *630:I 40.154 
*END

*D_NET *20 0.00840986
*CONN
*P FrameData[27] I
*I *631:I I *D gf180mcu_fd_sc_mcu7t5v0__buf_2
*CAP
1 FrameData[27] 0.00161174
2 *631:I 0.00161174
3 *631:I *632:I 0.000216369
4 *631:I *633:I 0
5 *631:I *635:I 0.000585085
6 *631:I *719:I 0.000188528
7 *631:I *125:17 0.00214468
8 *631:I *219:20 0.00158227
9 *630:I *631:I 0.000469463
*RES
1 FrameData[27] *631:I 32.75 
*END

*D_NET *21 0.0158326
*CONN
*P FrameData[28] I
*I *632:I I *D gf180mcu_fd_sc_mcu7t5v0__buf_2
*CAP
1 FrameData[28] 0.000649995
2 *632:I 0.000649995
3 *632:I *633:I 0.00019554
4 *632:I *635:I 0.00448661
5 *632:I *700:I 0.00157415
6 *632:I *703:I 0.000603474
7 *632:I *220:20 7.26364e-05
8 *632:I *268:18 0
9 *629:I *632:I 0.00715473
10 *630:I *632:I 0.000229139
11 *631:I *632:I 0.000216369
*RES
1 FrameData[28] *632:I 42.814 
*END

*D_NET *22 0.00824782
*CONN
*P FrameData[29] I
*I *633:I I *D gf180mcu_fd_sc_mcu7t5v0__buf_2
*CAP
1 FrameData[29] 0.00159829
2 *633:I 0.00159829
3 *633:I FrameStrobe_O[8] 0.000403764
4 *633:I *634:I 0.00192359
5 *633:I *719:I 0.00213144
6 *633:I *736:I 0.000396912
7 *631:I *633:I 0
8 *632:I *633:I 0.00019554
*RES
1 FrameData[29] *633:I 31.078 
*END

*D_NET *23 0.023244
*CONN
*P FrameData[2] I
*I *606:I I *D gf180mcu_fd_sc_mcu7t5v0__buf_2
*CAP
1 FrameData[2] 0.003579
2 *606:I 0.000870696
3 *23:17 0.0044497
4 *606:I *609:I 0
5 *606:I *639:I 0
6 *606:I *645:I 4.93723e-05
7 *606:I *672:I 0.000519381
8 *606:I *713:I 0.000141171
9 *606:I *720:I 0.000338446
10 *606:I *733:I 0.000122352
11 *606:I *740:I 1.94947e-05
12 *606:I *760:I 1.71542e-05
13 *23:17 *607:I 0.00064271
14 *23:17 *656:I 0.000366586
15 *23:17 *657:I 0.00024218
16 *23:17 *663:I 5.1277e-05
17 *23:17 *668:I 4.70615e-05
18 *23:17 *669:I 0.000304055
19 *23:17 *670:I 0.0020266
20 *23:17 *671:I 0.000206341
21 *23:17 *672:I 4.86109e-05
22 *23:17 *673:I 0
23 *23:17 *694:I 0.000475025
24 *23:17 *699:I 0.000162568
25 *23:17 *701:I 0.000312703
26 *23:17 *702:I 0.000136303
27 *23:17 *773:I 0.00108141
28 *23:17 *29:25 0.000186206
29 *23:17 *125:17 0.000496265
30 *23:17 *219:20 0.000196614
31 *604:I *23:17 0.000186721
32 *626:I *23:17 0.00315624
33 *627:I *23:17 0.00230568
34 *628:I *23:17 0.000121123
35 *12:17 *23:17 0.000384949
*RES
1 FrameData[2] *23:17 49.014 
2 *23:17 *606:I 15.004 
*END

*D_NET *24 0.00710044
*CONN
*P FrameData[30] I
*I *634:I I *D gf180mcu_fd_sc_mcu7t5v0__buf_2
*CAP
1 FrameData[30] 0.00223963
2 *634:I 0.00223963
3 *634:I FrameStrobe_O[2] 5.40431e-05
4 *634:I FrameStrobe_O[4] 4.08987e-05
5 *634:I FrameStrobe_O[5] 9.34764e-05
6 *634:I FrameStrobe_O[7] 5.40431e-05
7 *634:I FrameStrobe_O[8] 0.000114788
8 *634:I FrameStrobe_O[9] 0
9 *634:I *635:I 0.000207776
10 *634:I *709:I 2.22758e-05
11 *634:I *739:I 0.000110291
12 *633:I *634:I 0.00192359
*RES
1 FrameData[30] *634:I 30.698 
*END

*D_NET *25 0.0148969
*CONN
*P FrameData[31] I
*I *635:I I *D gf180mcu_fd_sc_mcu7t5v0__buf_2
*CAP
1 FrameData[31] 0.00161476
2 *635:I 0.00161476
3 *635:I FrameStrobe_O[11] 0.000367372
4 *635:I UserCLKo 0
5 *635:I *700:I 0.00264491
6 *635:I *710:I 3.75477e-05
7 *635:I *720:I 0.000116368
8 *635:I *734:I 0.00143907
9 *635:I *125:17 0.000727654
10 *629:I *635:I 3.19219e-05
11 *630:I *635:I 0.00102304
12 *631:I *635:I 0.000585085
13 *632:I *635:I 0.00448661
14 *634:I *635:I 0.000207776
*RES
1 FrameData[31] *635:I 49.274 
*END

*D_NET *26 0.0170019
*CONN
*P FrameData[3] I
*I *607:I I *D gf180mcu_fd_sc_mcu7t5v0__buf_2
*CAP
1 FrameData[3] 0.00180771
2 *607:I 0.00180771
3 *607:I *613:I 0.000784398
4 *607:I *657:I 5.87975e-05
5 *607:I *658:I 0.000196381
6 *607:I *660:I 0.000250704
7 *607:I *661:I 0.000260701
8 *607:I *663:I 0.000394605
9 *607:I *669:I 0.000602506
10 *607:I *671:I 2.15998e-06
11 *607:I *679:I 0.000370756
12 *607:I *686:I 0.00141161
13 *607:I *687:I 8.35342e-05
14 *607:I *689:I 0.000324418
15 *607:I *690:I 0.00224309
16 *607:I *711:I 4.09822e-06
17 *607:I *742:I 0.000295615
18 *607:I *746:I 0.00112845
19 *607:I *749:I 8.99126e-05
20 *607:I *771:I 7.83779e-05
21 *607:I *772:I 0.000195689
22 *607:I *773:I 0.00323439
23 *607:I *27:19 0.000555478
24 *607:I *134:29 0.00017811
25 *23:17 *607:I 0.00064271
*RES
1 FrameData[3] *607:I 47.146 
*END

*D_NET *27 0.0173692
*CONN
*P FrameData[4] I
*I *608:I I *D gf180mcu_fd_sc_mcu7t5v0__buf_2
*CAP
1 FrameData[4] 0.0031017
2 *608:I 0
3 *27:19 0.0031017
4 *27:19 *640:I 2.83322e-05
5 *27:19 *642:I 0.000605718
6 *27:19 *658:I 4.32371e-05
7 *27:19 *667:I 0.000346122
8 *27:19 *734:I 0.000289642
9 *27:19 *745:I 0.00133574
10 *27:19 *28:15 0.000213412
11 *27:19 *29:25 0
12 *27:19 *247:26 7.84218e-05
13 *604:I *27:19 8.6466e-05
14 *607:I *27:19 0.000555478
15 *619:I *27:19 0
16 *620:I *27:19 0
17 *622:I *27:19 0.00166069
18 *623:I *27:19 0.000614234
19 *624:I *27:19 0.00530834
20 *12:17 *27:19 0
*RES
1 FrameData[4] *27:19 47.13 
2 *27:19 *608:I 4.5 
*END

*D_NET *28 0.0239772
*CONN
*P FrameData[5] I
*I *609:I I *D gf180mcu_fd_sc_mcu7t5v0__buf_2
*CAP
1 FrameData[5] 0.00193447
2 *609:I 0.000424437
3 *28:15 0.0023589
4 *609:I *645:I 0.00011415
5 *609:I *740:I 0.000783715
6 *609:I *781:I 1.3758e-05
7 *609:I *220:20 0
8 *28:15 *642:I 0.000135843
9 *28:15 *695:I 8.8425e-05
10 *28:15 *29:25 0.000619263
11 *28:15 *268:18 0.00841727
12 *606:I *609:I 0
13 *621:I *609:I 0
14 *623:I *609:I 5.4811e-06
15 *624:I *28:15 0.00862841
16 *625:I *28:15 0.000239691
17 *3:23 *28:15 0
18 *27:19 *28:15 0.000213412
*RES
1 FrameData[5] *28:15 47.13 
2 *28:15 *609:I 7.616 
*END

*D_NET *29 0.0181495
*CONN
*P FrameData[6] I
*I *610:I I *D gf180mcu_fd_sc_mcu7t5v0__buf_2
*CAP
1 FrameData[6] 0.0011172
2 *610:I 7.883e-05
3 *29:25 0.00119603
4 *610:I *645:I 2.02098e-05
5 *610:I *671:I 0.000125852
6 *610:I *715:I 8.66751e-05
7 *29:25 *612:I 0.00186068
8 *29:25 *665:I 0.00125196
9 *29:25 *666:I 0.0025654