* NGSPICE file created from RegFile.ext - technology: gf180mcuD

* Black-box entry subcircuit for gf180mcu_fd_sc_mcu7t5v0__latq_1 abstract view
.subckt gf180mcu_fd_sc_mcu7t5v0__latq_1 D E Q VDD VNW VPW VSS
.ends

* Black-box entry subcircuit for gf180mcu_fd_sc_mcu7t5v0__fillcap_8 abstract view
.subckt gf180mcu_fd_sc_mcu7t5v0__fillcap_8 VDD VNW VPW VSS
.ends

* Black-box entry subcircuit for gf180mcu_fd_sc_mcu7t5v0__oai21_1 abstract view
.subckt gf180mcu_fd_sc_mcu7t5v0__oai21_1 A1 A2 B ZN VDD VNW VPW VSS
.ends

* Black-box entry subcircuit for gf180mcu_fd_sc_mcu7t5v0__fill_2 abstract view
.subckt gf180mcu_fd_sc_mcu7t5v0__fill_2 VDD VNW VPW VSS
.ends

* Black-box entry subcircuit for gf180mcu_fd_sc_mcu7t5v0__nand2_1 abstract view
.subckt gf180mcu_fd_sc_mcu7t5v0__nand2_1 A1 A2 ZN VDD VNW VPW VSS
.ends

* Black-box entry subcircuit for gf180mcu_fd_sc_mcu7t5v0__fill_1 abstract view
.subckt gf180mcu_fd_sc_mcu7t5v0__fill_1 VDD VNW VPW VSS
.ends

* Black-box entry subcircuit for gf180mcu_fd_sc_mcu7t5v0__fillcap_4 abstract view
.subckt gf180mcu_fd_sc_mcu7t5v0__fillcap_4 VDD VNW VPW VSS
.ends

* Black-box entry subcircuit for gf180mcu_fd_sc_mcu7t5v0__filltie abstract view
.subckt gf180mcu_fd_sc_mcu7t5v0__filltie VDD VSS
.ends

* Black-box entry subcircuit for gf180mcu_fd_sc_mcu7t5v0__endcap abstract view
.subckt gf180mcu_fd_sc_mcu7t5v0__endcap VDD VSS
.ends

* Black-box entry subcircuit for gf180mcu_fd_sc_mcu7t5v0__mux4_1 abstract view
.subckt gf180mcu_fd_sc_mcu7t5v0__mux4_1 I0 I1 I2 I3 S0 S1 Z VDD VNW VPW VSS
.ends

* Black-box entry subcircuit for gf180mcu_fd_sc_mcu7t5v0__mux2_2 abstract view
.subckt gf180mcu_fd_sc_mcu7t5v0__mux2_2 I0 I1 S Z VDD VNW VPW VSS
.ends

* Black-box entry subcircuit for gf180mcu_fd_sc_mcu7t5v0__aoi211_1 abstract view
.subckt gf180mcu_fd_sc_mcu7t5v0__aoi211_1 A1 A2 B C ZN VDD VNW VPW VSS
.ends

* Black-box entry subcircuit for gf180mcu_fd_sc_mcu7t5v0__clkinv_1 abstract view
.subckt gf180mcu_fd_sc_mcu7t5v0__clkinv_1 I ZN VDD VNW VPW VSS
.ends

* Black-box entry subcircuit for gf180mcu_fd_sc_mcu7t5v0__fillcap_16 abstract view
.subckt gf180mcu_fd_sc_mcu7t5v0__fillcap_16 VDD VNW VPW VSS
.ends

* Black-box entry subcircuit for gf180mcu_fd_sc_mcu7t5v0__buf_1 abstract view
.subckt gf180mcu_fd_sc_mcu7t5v0__buf_1 I Z VDD VNW VPW VSS
.ends

* Black-box entry subcircuit for gf180mcu_fd_sc_mcu7t5v0__aoi21_1 abstract view
.subckt gf180mcu_fd_sc_mcu7t5v0__aoi21_1 A1 A2 B ZN VDD VNW VPW VSS
.ends

* Black-box entry subcircuit for gf180mcu_fd_sc_mcu7t5v0__oai32_1 abstract view
.subckt gf180mcu_fd_sc_mcu7t5v0__oai32_1 A1 A2 A3 B1 B2 ZN VDD VNW VPW VSS
.ends

* Black-box entry subcircuit for gf180mcu_fd_sc_mcu7t5v0__nor2_1 abstract view
.subckt gf180mcu_fd_sc_mcu7t5v0__nor2_1 A1 A2 ZN VDD VNW VPW VSS
.ends

* Black-box entry subcircuit for gf180mcu_fd_sc_mcu7t5v0__and2_1 abstract view
.subckt gf180mcu_fd_sc_mcu7t5v0__and2_1 A1 A2 Z VDD VNW VPW VSS
.ends

* Black-box entry subcircuit for gf180mcu_fd_sc_mcu7t5v0__oai211_1 abstract view
.subckt gf180mcu_fd_sc_mcu7t5v0__oai211_1 A1 A2 B C ZN VDD VNW VPW VSS
.ends

* Black-box entry subcircuit for gf180mcu_fd_sc_mcu7t5v0__antenna abstract view
.subckt gf180mcu_fd_sc_mcu7t5v0__antenna I VDD VNW VPW VSS
.ends

* Black-box entry subcircuit for gf180mcu_fd_sc_mcu7t5v0__nand3_1 abstract view
.subckt gf180mcu_fd_sc_mcu7t5v0__nand3_1 A1 A2 A3 ZN VDD VNW VPW VSS
.ends

* Black-box entry subcircuit for gf180mcu_fd_sc_mcu7t5v0__aoi221_1 abstract view
.subckt gf180mcu_fd_sc_mcu7t5v0__aoi221_1 A1 A2 B1 B2 C ZN VDD VNW VPW VSS
.ends

* Black-box entry subcircuit for gf180mcu_fd_sc_mcu7t5v0__dffq_1 abstract view
.subckt gf180mcu_fd_sc_mcu7t5v0__dffq_1 D CLK Q VDD VNW VPW VSS
.ends

* Black-box entry subcircuit for gf180mcu_fd_sc_mcu7t5v0__clkbuf_8 abstract view
.subckt gf180mcu_fd_sc_mcu7t5v0__clkbuf_8 I Z VDD VNW VPW VSS
.ends

* Black-box entry subcircuit for gf180mcu_fd_sc_mcu7t5v0__oai221_1 abstract view
.subckt gf180mcu_fd_sc_mcu7t5v0__oai221_1 A1 A2 B1 B2 C ZN VDD VNW VPW VSS
.ends

* Black-box entry subcircuit for gf180mcu_fd_sc_mcu7t5v0__fillcap_32 abstract view
.subckt gf180mcu_fd_sc_mcu7t5v0__fillcap_32 VDD VNW VPW VSS
.ends

* Black-box entry subcircuit for gf180mcu_fd_sc_mcu7t5v0__oai22_1 abstract view
.subckt gf180mcu_fd_sc_mcu7t5v0__oai22_1 A1 A2 B1 B2 ZN VDD VNW VPW VSS
.ends

* Black-box entry subcircuit for gf180mcu_fd_sc_mcu7t5v0__aoi22_1 abstract view
.subckt gf180mcu_fd_sc_mcu7t5v0__aoi22_1 A1 A2 B1 B2 ZN VDD VNW VPW VSS
.ends

* Black-box entry subcircuit for gf180mcu_fd_sc_mcu7t5v0__nor3_1 abstract view
.subckt gf180mcu_fd_sc_mcu7t5v0__nor3_1 A1 A2 A3 ZN VDD VNW VPW VSS
.ends

* Black-box entry subcircuit for gf180mcu_fd_sc_mcu7t5v0__clkbuf_4 abstract view
.subckt gf180mcu_fd_sc_mcu7t5v0__clkbuf_4 I Z VDD VNW VPW VSS
.ends

* Black-box entry subcircuit for gf180mcu_fd_sc_mcu7t5v0__clkbuf_2 abstract view
.subckt gf180mcu_fd_sc_mcu7t5v0__clkbuf_2 I Z VDD VNW VPW VSS
.ends

* Black-box entry subcircuit for gf180mcu_fd_sc_mcu7t5v0__nand4_1 abstract view
.subckt gf180mcu_fd_sc_mcu7t5v0__nand4_1 A1 A2 A3 A4 ZN VDD VNW VPW VSS
.ends

* Black-box entry subcircuit for gf180mcu_fd_sc_mcu7t5v0__and3_1 abstract view
.subckt gf180mcu_fd_sc_mcu7t5v0__and3_1 A1 A2 A3 Z VDD VNW VPW VSS
.ends

* Black-box entry subcircuit for gf180mcu_fd_sc_mcu7t5v0__clkinv_4 abstract view
.subckt gf180mcu_fd_sc_mcu7t5v0__clkinv_4 I ZN VDD VNW VPW VSS
.ends

* Black-box entry subcircuit for gf180mcu_fd_sc_mcu7t5v0__or2_1 abstract view
.subckt gf180mcu_fd_sc_mcu7t5v0__or2_1 A1 A2 Z VDD VNW VPW VSS
.ends

* Black-box entry subcircuit for gf180mcu_fd_sc_mcu7t5v0__inv_3 abstract view
.subckt gf180mcu_fd_sc_mcu7t5v0__inv_3 I ZN VDD VNW VPW VSS
.ends

* Black-box entry subcircuit for gf180mcu_fd_sc_mcu7t5v0__oai31_1 abstract view
.subckt gf180mcu_fd_sc_mcu7t5v0__oai31_1 A1 A2 A3 B ZN VDD VNW VPW VSS
.ends

* Black-box entry subcircuit for gf180mcu_fd_sc_mcu7t5v0__inv_2 abstract view
.subckt gf180mcu_fd_sc_mcu7t5v0__inv_2 I ZN VDD VNW VPW VSS
.ends

* Black-box entry subcircuit for gf180mcu_fd_sc_mcu7t5v0__clkbuf_16 abstract view
.subckt gf180mcu_fd_sc_mcu7t5v0__clkbuf_16 I Z VDD VNW VPW VSS
.ends

.subckt RegFile E1BEG[0] E1BEG[1] E1BEG[2] E1BEG[3] E1END[0] E1END[1] E1END[2] E1END[3]
+ E2BEG[0] E2BEG[1] E2BEG[2] E2BEG[3] E2BEG[4] E2BEG[5] E2BEG[6] E2BEG[7] E2BEGb[0]
+ E2BEGb[1] E2BEGb[2] E2BEGb[3] E2BEGb[4] E2BEGb[5] E2BEGb[6] E2BEGb[7] E2END[0] E2END[1]
+ E2END[2] E2END[3] E2END[4] E2END[5] E2END[6] E2END[7] E2MID[0] E2MID[1] E2MID[2]
+ E2MID[3] E2MID[4] E2MID[5] E2MID[6] E2MID[7] E6BEG[0] E6BEG[10] E6BEG[11] E6BEG[1]
+ E6BEG[2] E6BEG[3] E6BEG[4] E6BEG[5] E6BEG[6] E6BEG[7] E6BEG[8] E6BEG[9] E6END[0]
+ E6END[10] E6END[11] E6END[1] E6END[2] E6END[3] E6END[4] E6END[5] E6END[6] E6END[7]
+ E6END[8] E6END[9] EE4BEG[0] EE4BEG[10] EE4BEG[11] EE4BEG[12] EE4BEG[13] EE4BEG[14]
+ EE4BEG[15] EE4BEG[1] EE4BEG[2] EE4BEG[3] EE4BEG[4] EE4BEG[5] EE4BEG[6] EE4BEG[7]
+ EE4BEG[8] EE4BEG[9] EE4END[0] EE4END[10] EE4END[11] EE4END[12] EE4END[13] EE4END[14]
+ EE4END[15] EE4END[1] EE4END[2] EE4END[3] EE4END[4] EE4END[5] EE4END[6] EE4END[7]
+ EE4END[8] EE4END[9] FrameData[0] FrameData[10] FrameData[11] FrameData[12] FrameData[13]
+ FrameData[14] FrameData[15] FrameData[16] FrameData[17] FrameData[18] FrameData[19]
+ FrameData[1] FrameData[20] FrameData[21] FrameData[22] FrameData[23] FrameData[24]
+ FrameData[25] FrameData[26] FrameData[27] FrameData[28] FrameData[29] FrameData[2]
+ FrameData[30] FrameData[31] FrameData[3] FrameData[4] FrameData[5] FrameData[6]
+ FrameData[7] FrameData[8] FrameData[9] FrameData_O[0] FrameData_O[10] FrameData_O[11]
+ FrameData_O[12] FrameData_O[13] FrameData_O[14] FrameData_O[15] FrameData_O[16]
+ FrameData_O[17] FrameData_O[18] FrameData_O[19] FrameData_O[1] FrameData_O[20] FrameData_O[21]
+ FrameData_O[22] FrameData_O[23] FrameData_O[24] FrameData_O[25] FrameData_O[26]
+ FrameData_O[27] FrameData_O[28] FrameData_O[29] FrameData_O[2] FrameData_O[30] FrameData_O[31]
+ FrameData_O[3] FrameData_O[4] FrameData_O[5] FrameData_O[6] FrameData_O[7] FrameData_O[8]
+ FrameData_O[9] FrameStrobe[0] FrameStrobe[10] FrameStrobe[11] FrameStrobe[12] FrameStrobe[13]
+ FrameStrobe[14] FrameStrobe[15] FrameStrobe[16] FrameStrobe[17] FrameStrobe[18]
+ FrameStrobe[19] FrameStrobe[1] FrameStrobe[2] FrameStrobe[3] FrameStrobe[4] FrameStrobe[5]
+ FrameStrobe[6] FrameStrobe[7] FrameStrobe[8] FrameStrobe[9] FrameStrobe_O[0] FrameStrobe_O[10]
+ FrameStrobe_O[11] FrameStrobe_O[12] FrameStrobe_O[13] FrameStrobe_O[14] FrameStrobe_O[15]
+ FrameStrobe_O[16] FrameStrobe_O[17] FrameStrobe_O[18] FrameStrobe_O[19] FrameStrobe_O[1]
+ FrameStrobe_O[2] FrameStrobe_O[3] FrameStrobe_O[4] FrameStrobe_O[5] FrameStrobe_O[6]
+ FrameStrobe_O[7] FrameStrobe_O[8] FrameStrobe_O[9] N1BEG[0] N1BEG[1] N1BEG[2] N1BEG[3]
+ N1END[0] N1END[1] N1END[2] N1END[3] N2BEG[0] N2BEG[1] N2BEG[2] N2BEG[3] N2BEG[4]
+ N2BEG[5] N2BEG[6] N2BEG[7] N2BEGb[0] N2BEGb[1] N2BEGb[2] N2BEGb[3] N2BEGb[4] N2BEGb[5]
+ N2BEGb[6] N2BEGb[7] N2END[0] N2END[1] N2END[2] N2END[3] N2END[4] N2END[5] N2END[6]
+ N2END[7] N2MID[0] N2MID[1] N2MID[2] N2MID[3] N2MID[4] N2MID[5] N2MID[6] N2MID[7]
+ N4BEG[0] N4BEG[10] N4BEG[11] N4BEG[12] N4BEG[13] N4BEG[14] N4BEG[15] N4BEG[1] N4BEG[2]
+ N4BEG[3] N4BEG[4] N4BEG[5] N4BEG[6] N4BEG[7] N4BEG[8] N4BEG[9] N4END[0] N4END[10]
+ N4END[11] N4END[12] N4END[13] N4END[14] N4END[15] N4END[1] N4END[2] N4END[3] N4END[4]
+ N4END[5] N4END[6] N4END[7] N4END[8] N4END[9] NN4BEG[0] NN4BEG[10] NN4BEG[11] NN4BEG[12]
+ NN4BEG[13] NN4BEG[14] NN4BEG[15] NN4BEG[1] NN4BEG[2] NN4BEG[3] NN4BEG[4] NN4BEG[5]
+ NN4BEG[6] NN4BEG[7] NN4BEG[8] NN4BEG[9] NN4END[0] NN4END[10] NN4END[11] NN4END[12]
+ NN4END[13] NN4END[14] NN4END[15] NN4END[1] NN4END[2] NN4END[3] NN4END[4] NN4END[5]
+ NN4END[6] NN4END[7] NN4END[8] NN4END[9] S1BEG[0] S1BEG[1] S1BEG[2] S1BEG[3] S1END[0]
+ S1END[1] S1END[2] S1END[3] S2BEG[0] S2BEG[1] S2BEG[2] S2BEG[3] S2BEG[4] S2BEG[5]
+ S2BEG[6] S2BEG[7] S2BEGb[0] S2BEGb[1] S2BEGb[2] S2BEGb[3] S2BEGb[4] S2BEGb[5] S2BEGb[6]
+ S2BEGb[7] S2END[0] S2END[1] S2END[2] S2END[3] S2END[4] S2END[5] S2END[6] S2END[7]
+ S2MID[0] S2MID[1] S2MID[2] S2MID[3] S2MID[4] S2MID[5] S2MID[6] S2MID[7] S4BEG[0]
+ S4BEG[10] S4BEG[11] S4BEG[12] S4BEG[13] S4BEG[14] S4BEG[15] S4BEG[1] S4BEG[2] S4BEG[3]
+ S4BEG[4] S4BEG[5] S4BEG[6] S4BEG[7] S4BEG[8] S4BEG[9] S4END[0] S4END[10] S4END[11]
+ S4END[12] S4END[13] S4END[14] S4END[15] S4END[1] S4END[2] S4END[3] S4END[4] S4END[5]
+ S4END[6] S4END[7] S4END[8] S4END[9] SS4BEG[0] SS4BEG[10] SS4BEG[11] SS4BEG[12] SS4BEG[13]
+ SS4BEG[14] SS4BEG[15] SS4BEG[1] SS4BEG[2] SS4BEG[3] SS4BEG[4] SS4BEG[5] SS4BEG[6]
+ SS4BEG[7] SS4BEG[8] SS4BEG[9] SS4END[0] SS4END[10] SS4END[11] SS4END[12] SS4END[13]
+ SS4END[14] SS4END[15] SS4END[1] SS4END[2] SS4END[3] SS4END[4] SS4END[5] SS4END[6]
+ SS4END[7] SS4END[8] SS4END[9] UserCLK UserCLKo VDD VSS W1BEG[0] W1BEG[1] W1BEG[2]
+ W1BEG[3] W1END[0] W1END[1] W1END[2] W1END[3] W2BEG[0] W2BEG[1] W2BEG[2] W2BEG[3]
+ W2BEG[4] W2BEG[5] W2BEG[6] W2BEG[7] W2BEGb[0] W2BEGb[1] W2BEGb[2] W2BEGb[3] W2BEGb[4]
+ W2BEGb[5] W2BEGb[6] W2BEGb[7] W2END[0] W2END[1] W2END[2] W2END[3] W2END[4] W2END[5]
+ W2END[6] W2END[7] W2MID[0] W2MID[1] W2MID[2] W2MID[3] W2MID[4] W2MID[5] W2MID[6]
+ W2MID[7] W6BEG[0] W6BEG[10] W6BEG[11] W6BEG[1] W6BEG[2] W6BEG[3] W6BEG[4] W6BEG[5]
+ W6BEG[6] W6BEG[7] W6BEG[8] W6BEG[9] W6END[0] W6END[10] W6END[11] W6END[1] W6END[2]
+ W6END[3] W6END[4] W6END[5] W6END[6] W6END[7] W6END[8] W6END[9] WW4BEG[0] WW4BEG[10]
+ WW4BEG[11] WW4BEG[12] WW4BEG[13] WW4BEG[14] WW4BEG[15] WW4BEG[1] WW4BEG[2] WW4BEG[3]
+ WW4BEG[4] WW4BEG[5] WW4BEG[6] WW4BEG[7] WW4BEG[8] WW4BEG[9] WW4END[0] WW4END[10]
+ WW4END[11] WW4END[12] WW4END[13] WW4END[14] WW4END[15] WW4END[1] WW4END[2] WW4END[3]
+ WW4END[4] WW4END[5] WW4END[6] WW4END[7] WW4END[8] WW4END[9]
X_3155_ FrameData[19] FrameStrobe[4] Inst_RegFile_ConfigMem.Inst_frame4_bit19.Q VDD
+ VDD VSS VSS gf180mcu_fd_sc_mcu7t5v0__latq_1
XFILLER_54_247 VDD VDD VSS VSS gf180mcu_fd_sc_mcu7t5v0__fillcap_8
X_2106_ Inst_RegFile_32x4.mem\[26\]\[2\] B_ADR0 _0740_ _0741_ VDD VDD VSS VSS gf180mcu_fd_sc_mcu7t5v0__oai21_1
XFILLER_27_439 VDD VDD VSS VSS gf180mcu_fd_sc_mcu7t5v0__fill_2
X_3086_ FrameData[14] FrameStrobe[6] Inst_RegFile_ConfigMem.Inst_frame6_bit14.Q VDD
+ VDD VSS VSS gf180mcu_fd_sc_mcu7t5v0__latq_1
X_2037_ _1340_ B_ADR0 _0674_ VDD VDD VSS VSS gf180mcu_fd_sc_mcu7t5v0__nand2_1
X_2939_ FrameData[27] FrameStrobe[11] Inst_RegFile_ConfigMem.Inst_frame11_bit27.Q
+ VDD VDD VSS VSS gf180mcu_fd_sc_mcu7t5v0__latq_1
XFILLER_22_177 VDD VDD VSS VSS gf180mcu_fd_sc_mcu7t5v0__fill_1
XFILLER_10_317 VDD VDD VSS VSS gf180mcu_fd_sc_mcu7t5v0__fillcap_4
XFILLER_10_328 VDD VDD VSS VSS gf180mcu_fd_sc_mcu7t5v0__fillcap_4
XTAP_TAPCELL_ROW_20_312 VDD VSS gf180mcu_fd_sc_mcu7t5v0__filltie
XFILLER_26_96 VDD VDD VSS VSS gf180mcu_fd_sc_mcu7t5v0__fill_1
XPHY_EDGE_ROW_39_Left_110 VDD VSS gf180mcu_fd_sc_mcu7t5v0__endcap
XFILLER_9_137 VDD VDD VSS VSS gf180mcu_fd_sc_mcu7t5v0__fill_2
XTAP_TAPCELL_ROW_34_426 VDD VSS gf180mcu_fd_sc_mcu7t5v0__filltie
X_1606_ AD3 BD0 BD2 BD3 Inst_RegFile_ConfigMem.Inst_frame4_bit20.Q Inst_RegFile_ConfigMem.Inst_frame4_bit21.Q
+ _0263_ VDD VDD VSS VSS gf180mcu_fd_sc_mcu7t5v0__mux4_1
X_2724_ Inst_RegFile_32x4.mem\[18\]\[3\] _1198_ _1229_ _0063_ VDD VDD VSS VSS gf180mcu_fd_sc_mcu7t5v0__mux2_2
XTAP_TAPCELL_ROW_42_492 VDD VSS gf180mcu_fd_sc_mcu7t5v0__filltie
X_2655_ Inst_RegFile_32x4.mem\[27\]\[3\] _1198_ _1208_ _0015_ VDD VDD VSS VSS gf180mcu_fd_sc_mcu7t5v0__mux2_2
XFILLER_59_339 VDD VDD VSS VSS gf180mcu_fd_sc_mcu7t5v0__fill_2
X_2586_ _1150_ _1152_ _1154_ _0141_ _1155_ VDD VDD VSS VSS gf180mcu_fd_sc_mcu7t5v0__aoi211_1
X_1537_ N2END[5] E2END[5] SS4END[1] W2END[5] Inst_RegFile_ConfigMem.Inst_frame5_bit20.Q
+ Inst_RegFile_ConfigMem.Inst_frame5_bit21.Q _0197_ VDD VDD VSS VSS gf180mcu_fd_sc_mcu7t5v0__mux4_1
X_1468_ Inst_RegFile_ConfigMem.Inst_frame2_bit6.Q _0131_ VDD VDD VSS VSS gf180mcu_fd_sc_mcu7t5v0__clkinv_1
X_3207_ FrameData[7] FrameStrobe[2] Inst_RegFile_ConfigMem.Inst_frame2_bit7.Q VDD
+ VDD VSS VSS gf180mcu_fd_sc_mcu7t5v0__latq_1
X_1399_ W6END[0] _1290_ VDD VDD VSS VSS gf180mcu_fd_sc_mcu7t5v0__clkinv_1
XFILLER_67_372 VDD VDD VSS VSS gf180mcu_fd_sc_mcu7t5v0__fillcap_4
X_3069_ FrameData[29] FrameStrobe[7] Inst_RegFile_ConfigMem.Inst_frame7_bit29.Q VDD
+ VDD VSS VSS gf180mcu_fd_sc_mcu7t5v0__latq_1
X_3138_ FrameData[2] FrameStrobe[4] Inst_RegFile_ConfigMem.Inst_frame4_bit2.Q VDD
+ VDD VSS VSS gf180mcu_fd_sc_mcu7t5v0__latq_1
XTAP_TAPCELL_ROW_5_195 VDD VSS gf180mcu_fd_sc_mcu7t5v0__filltie
XFILLER_18_203 VDD VDD VSS VSS gf180mcu_fd_sc_mcu7t5v0__fill_2
XFILLER_18_247 VDD VDD VSS VSS gf180mcu_fd_sc_mcu7t5v0__fillcap_16
XFILLER_61_504 VDD VDD VSS VSS gf180mcu_fd_sc_mcu7t5v0__fill_2
XFILLER_53_72 VDD VDD VSS VSS gf180mcu_fd_sc_mcu7t5v0__fill_2
X_2440_ Inst_RegFile_ConfigMem.Inst_frame12_bit20.Q _0935_ _1033_ Inst_RegFile_ConfigMem.Inst_frame12_bit21.Q
+ _1034_ VDD VDD VSS VSS gf180mcu_fd_sc_mcu7t5v0__aoi211_1
X_2371_ N1END[3] E1END[3] W1END[3] AD2 Inst_RegFile_ConfigMem.Inst_frame10_bit15.Q
+ Inst_RegFile_ConfigMem.Inst_frame10_bit16.Q _0976_ VDD VDD VSS VSS gf180mcu_fd_sc_mcu7t5v0__mux4_1
XFILLER_24_239 VDD VDD VSS VSS gf180mcu_fd_sc_mcu7t5v0__fill_2
XFILLER_32_294 VDD VDD VSS VSS gf180mcu_fd_sc_mcu7t5v0__fill_1
XFILLER_32_261 VDD VDD VSS VSS gf180mcu_fd_sc_mcu7t5v0__fill_1
X_2638_ Inst_RegFile_32x4.mem\[25\]\[0\] _1182_ _1202_ _0004_ VDD VDD VSS VSS gf180mcu_fd_sc_mcu7t5v0__mux2_2
X_2569_ Inst_RegFile_ConfigMem.Inst_frame9_bit30.Q _0931_ _1137_ Inst_RegFile_ConfigMem.Inst_frame9_bit31.Q
+ _1138_ VDD VDD VSS VSS gf180mcu_fd_sc_mcu7t5v0__aoi211_1
X_2707_ _1184_ Inst_RegFile_32x4.mem\[14\]\[1\] _1226_ _0049_ VDD VDD VSS VSS gf180mcu_fd_sc_mcu7t5v0__mux2_2
Xoutput242 net242 WW4BEG[13] VDD VDD VSS VSS gf180mcu_fd_sc_mcu7t5v0__buf_1
Xoutput220 net220 W2BEGb[2] VDD VDD VSS VSS gf180mcu_fd_sc_mcu7t5v0__buf_1
Xoutput231 net231 W6BEG[3] VDD VDD VSS VSS gf180mcu_fd_sc_mcu7t5v0__buf_1
Xoutput253 net253 WW4BEG[9] VDD VDD VSS VSS gf180mcu_fd_sc_mcu7t5v0__buf_1
XTAP_TAPCELL_ROW_53_576 VDD VSS gf180mcu_fd_sc_mcu7t5v0__filltie
XFILLER_48_72 VDD VDD VSS VSS gf180mcu_fd_sc_mcu7t5v0__fill_1
XFILLER_46_342 VDD VDD VSS VSS gf180mcu_fd_sc_mcu7t5v0__fill_2
XFILLER_34_559 VDD VDD VSS VSS gf180mcu_fd_sc_mcu7t5v0__fill_2
X_1871_ _1265_ _0514_ _1271_ _0515_ VDD VDD VSS VSS gf180mcu_fd_sc_mcu7t5v0__aoi21_1
X_1940_ Inst_RegFile_ConfigMem.Inst_frame8_bit31.Q _0575_ _0578_ _0565_ _0568_ _0581_
+ VDD VDD VSS VSS gf180mcu_fd_sc_mcu7t5v0__oai32_1
XTAP_TAPCELL_ROW_16_278 VDD VSS gf180mcu_fd_sc_mcu7t5v0__filltie
XFILLER_21_209 VDD VDD VSS VSS gf180mcu_fd_sc_mcu7t5v0__fill_1
X_3472_ N2MID[4] net117 VDD VDD VSS VSS gf180mcu_fd_sc_mcu7t5v0__buf_1
X_2423_ N2END[2] S2END[2] E2END[2] WW4END[2] Inst_RegFile_ConfigMem.Inst_frame5_bit11.Q
+ Inst_RegFile_ConfigMem.Inst_frame5_bit10.Q _1019_ VDD VDD VSS VSS gf180mcu_fd_sc_mcu7t5v0__mux4_1
XFILLER_43_2 VDD VDD VSS VSS gf180mcu_fd_sc_mcu7t5v0__fill_2
XPHY_EDGE_ROW_24_Left_95 VDD VSS gf180mcu_fd_sc_mcu7t5v0__endcap
X_3541_ Inst_RegFile_switch_matrix.S4BEG1 net177 VDD VDD VSS VSS gf180mcu_fd_sc_mcu7t5v0__buf_1
X_2285_ AD3 BD0 BD1 BD2 Inst_RegFile_ConfigMem.Inst_frame4_bit28.Q Inst_RegFile_ConfigMem.Inst_frame4_bit29.Q
+ _0900_ VDD VDD VSS VSS gf180mcu_fd_sc_mcu7t5v0__mux4_1
X_2354_ N2END[0] S2END[0] E2END[0] WW4END[3] Inst_RegFile_ConfigMem.Inst_frame5_bit7.Q
+ Inst_RegFile_ConfigMem.Inst_frame5_bit6.Q _0961_ VDD VDD VSS VSS gf180mcu_fd_sc_mcu7t5v0__mux4_1
XFILLER_40_529 VDD VDD VSS VSS gf180mcu_fd_sc_mcu7t5v0__fill_1
XTAP_TAPCELL_ROW_50_557 VDD VSS gf180mcu_fd_sc_mcu7t5v0__filltie
XTAP_TAPCELL_ROW_7_213 VDD VSS gf180mcu_fd_sc_mcu7t5v0__filltie
XFILLER_11_275 VDD VDD VSS VSS gf180mcu_fd_sc_mcu7t5v0__fillcap_4
XTAP_TAPCELL_ROW_13_259 VDD VSS gf180mcu_fd_sc_mcu7t5v0__filltie
XFILLER_7_257 VDD VDD VSS VSS gf180mcu_fd_sc_mcu7t5v0__fill_2
XFILLER_7_279 VDD VDD VSS VSS gf180mcu_fd_sc_mcu7t5v0__fill_1
X_2070_ Inst_RegFile_32x4.mem\[0\]\[2\] B_ADR0 _0705_ VDD VDD VSS VSS gf180mcu_fd_sc_mcu7t5v0__nor2_1
XFILLER_61_142 VDD VDD VSS VSS gf180mcu_fd_sc_mcu7t5v0__fillcap_4
X_2972_ FrameData[28] FrameStrobe[10] Inst_RegFile_ConfigMem.Inst_frame10_bit28.Q
+ VDD VDD VSS VSS gf180mcu_fd_sc_mcu7t5v0__latq_1
X_1785_ _1334_ A_ADR0 _0434_ VDD VDD VSS VSS gf180mcu_fd_sc_mcu7t5v0__nor2_1
X_1854_ Inst_RegFile_ConfigMem.Inst_frame8_bit25.Q _0293_ _0499_ VDD VDD VSS VSS gf180mcu_fd_sc_mcu7t5v0__and2_1
X_1923_ _1287_ Inst_RegFile_switch_matrix.JS2BEG6 _0564_ VDD VDD VSS VSS gf180mcu_fd_sc_mcu7t5v0__nand2_1
X_3386_ Inst_RegFile_switch_matrix.E6BEG0 net22 VDD VDD VSS VSS gf180mcu_fd_sc_mcu7t5v0__buf_1
X_3455_ FrameStrobe[19] net91 VDD VDD VSS VSS gf180mcu_fd_sc_mcu7t5v0__buf_1
X_2406_ N1END[0] E1END[0] S1END[0] AD3 Inst_RegFile_ConfigMem.Inst_frame11_bit14.Q
+ Inst_RegFile_ConfigMem.Inst_frame11_bit15.Q _1006_ VDD VDD VSS VSS gf180mcu_fd_sc_mcu7t5v0__mux4_1
X_3524_ S2MID[4] net169 VDD VDD VSS VSS gf180mcu_fd_sc_mcu7t5v0__buf_1
X_2268_ Inst_RegFile_ConfigMem.Inst_frame3_bit30.Q _0884_ _0883_ Inst_RegFile_ConfigMem.Inst_frame3_bit31.Q
+ _0885_ VDD VDD VSS VSS gf180mcu_fd_sc_mcu7t5v0__oai211_1
X_2337_ _0468_ _0946_ Inst_RegFile_ConfigMem.Inst_frame9_bit6.Q _0947_ VDD VDD VSS
+ VSS gf180mcu_fd_sc_mcu7t5v0__mux2_2
X_2199_ Inst_RegFile_ConfigMem.Inst_frame1_bit6.Q _0823_ _0824_ VDD VDD VSS VSS gf180mcu_fd_sc_mcu7t5v0__nor2_1
XTAP_TAPCELL_ROW_63_660 VDD VSS gf180mcu_fd_sc_mcu7t5v0__filltie
XFILLER_40_337 VDD VDD VSS VSS gf180mcu_fd_sc_mcu7t5v0__fill_1
XFILLER_29_96 VDD VDD VSS VSS gf180mcu_fd_sc_mcu7t5v0__fillcap_4
XFILLER_0_444 VDD VDD VSS VSS gf180mcu_fd_sc_mcu7t5v0__fill_2
XFILLER_43_142 VDD VDD VSS VSS gf180mcu_fd_sc_mcu7t5v0__fill_2
XTAP_TAPCELL_ROW_26_362 VDD VSS gf180mcu_fd_sc_mcu7t5v0__filltie
XTAP_TAPCELL_ROW_69_708 VDD VSS gf180mcu_fd_sc_mcu7t5v0__filltie
XANTENNA_5 FrameStrobe[16] VDD VDD VSS VSS gf180mcu_fd_sc_mcu7t5v0__antenna
X_3240_ FrameData[8] FrameStrobe[1] Inst_RegFile_ConfigMem.Inst_frame1_bit8.Q VDD
+ VDD VSS VSS gf180mcu_fd_sc_mcu7t5v0__latq_1
X_1570_ E6END[0] S2END[4] S4END[0] W2END[4] Inst_RegFile_ConfigMem.Inst_frame1_bit12.Q
+ Inst_RegFile_ConfigMem.Inst_frame1_bit13.Q _0229_ VDD VDD VSS VSS gf180mcu_fd_sc_mcu7t5v0__mux4_1
XFILLER_3_271 VDD VDD VSS VSS gf180mcu_fd_sc_mcu7t5v0__fill_2
XFILLER_66_278 VDD VDD VSS VSS gf180mcu_fd_sc_mcu7t5v0__fillcap_4
X_2122_ _1252_ _0754_ Inst_RegFile_ConfigMem.Inst_frame4_bit19.Q _0755_ VDD VDD VSS
+ VSS gf180mcu_fd_sc_mcu7t5v0__oai21_1
XFILLER_47_492 VDD VDD VSS VSS gf180mcu_fd_sc_mcu7t5v0__fillcap_4
XFILLER_39_404 VDD VDD VSS VSS gf180mcu_fd_sc_mcu7t5v0__fill_1
X_3171_ FrameData[3] FrameStrobe[3] Inst_RegFile_ConfigMem.Inst_frame3_bit3.Q VDD
+ VDD VSS VSS gf180mcu_fd_sc_mcu7t5v0__latq_1
X_2053_ _0550_ _0684_ _0689_ _0690_ VDD VDD VSS VSS gf180mcu_fd_sc_mcu7t5v0__nand3_1
XTAP_TAPCELL_ROW_60_630 VDD VSS gf180mcu_fd_sc_mcu7t5v0__filltie
X_2955_ FrameData[11] FrameStrobe[10] Inst_RegFile_ConfigMem.Inst_frame10_bit11.Q
+ VDD VDD VSS VSS gf180mcu_fd_sc_mcu7t5v0__latq_1
XFILLER_22_337 VDD VDD VSS VSS gf180mcu_fd_sc_mcu7t5v0__fill_2
XFILLER_22_359 VDD VDD VSS VSS gf180mcu_fd_sc_mcu7t5v0__fillcap_16
X_3507_ Inst_RegFile_switch_matrix.NN4BEG3 net143 VDD VDD VSS VSS gf180mcu_fd_sc_mcu7t5v0__buf_1
X_1768_ _1321_ A_ADR0 _0419_ VDD VDD VSS VSS gf180mcu_fd_sc_mcu7t5v0__nor2_1
X_1837_ _0478_ _0480_ _0482_ _1260_ _0483_ VDD VDD VSS VSS gf180mcu_fd_sc_mcu7t5v0__aoi211_1
X_1906_ _0545_ _0547_ _0548_ VDD VDD VSS VSS gf180mcu_fd_sc_mcu7t5v0__nor2_1
X_2886_ FrameData[6] FrameStrobe[12] Inst_RegFile_ConfigMem.Inst_frame12_bit6.Q VDD
+ VDD VSS VSS gf180mcu_fd_sc_mcu7t5v0__latq_1
X_3438_ FrameStrobe[2] net93 VDD VDD VSS VSS gf180mcu_fd_sc_mcu7t5v0__buf_1
XFILLER_57_212 VDD VDD VSS VSS gf180mcu_fd_sc_mcu7t5v0__fill_2
X_3369_ E2MID[1] net14 VDD VDD VSS VSS gf180mcu_fd_sc_mcu7t5v0__buf_1
X_1699_ _0348_ _0349_ _0351_ _0180_ _0219_ _0352_ VDD VDD VSS VSS gf180mcu_fd_sc_mcu7t5v0__aoi221_1
XFILLER_57_278 VDD VDD VSS VSS gf180mcu_fd_sc_mcu7t5v0__fill_2
XFILLER_53_451 VDD VDD VSS VSS gf180mcu_fd_sc_mcu7t5v0__fill_1
XFILLER_45_418 VDD VDD VSS VSS gf180mcu_fd_sc_mcu7t5v0__fill_2
XFILLER_25_131 VDD VDD VSS VSS gf180mcu_fd_sc_mcu7t5v0__fillcap_4
XPHY_EDGE_ROW_11_Left_82 VDD VSS gf180mcu_fd_sc_mcu7t5v0__endcap
XFILLER_13_348 VDD VDD VSS VSS gf180mcu_fd_sc_mcu7t5v0__fill_2
XFILLER_21_370 VDD VDD VSS VSS gf180mcu_fd_sc_mcu7t5v0__fill_1
Xoutput31 net31 E6BEG[8] VDD VDD VSS VSS gf180mcu_fd_sc_mcu7t5v0__buf_1
Xoutput75 net75 FrameData_O[4] VDD VDD VSS VSS gf180mcu_fd_sc_mcu7t5v0__buf_1
Xoutput64 net64 FrameData_O[23] VDD VDD VSS VSS gf180mcu_fd_sc_mcu7t5v0__buf_1
Xoutput53 net53 FrameData_O[13] VDD VDD VSS VSS gf180mcu_fd_sc_mcu7t5v0__buf_1
Xoutput42 net42 EE4BEG[3] VDD VDD VSS VSS gf180mcu_fd_sc_mcu7t5v0__buf_1
Xoutput20 net20 E2BEGb[7] VDD VDD VSS VSS gf180mcu_fd_sc_mcu7t5v0__buf_1
Xoutput7 net7 E2BEG[2] VDD VDD VSS VSS gf180mcu_fd_sc_mcu7t5v0__buf_1
Xoutput86 net86 FrameStrobe_O[14] VDD VDD VSS VSS gf180mcu_fd_sc_mcu7t5v0__buf_1
Xoutput97 net97 FrameStrobe_O[6] VDD VDD VSS VSS gf180mcu_fd_sc_mcu7t5v0__buf_1
XFILLER_48_201 VDD VDD VSS VSS gf180mcu_fd_sc_mcu7t5v0__fillcap_4
XFILLER_0_274 VDD VDD VSS VSS gf180mcu_fd_sc_mcu7t5v0__fill_2
XFILLER_31_101 VDD VDD VSS VSS gf180mcu_fd_sc_mcu7t5v0__fillcap_16
X_1622_ Inst_RegFile_ConfigMem.Inst_frame8_bit20.Q _0277_ _0278_ VDD VDD VSS VSS gf180mcu_fd_sc_mcu7t5v0__nand2_1
X_2740_ _1207_ _1221_ _1233_ VDD VDD VSS VSS gf180mcu_fd_sc_mcu7t5v0__nor2_1
X_2671_ Inst_RegFile_32x4.mem\[30\]\[1\] _1184_ _1214_ _0025_ VDD VDD VSS VSS gf180mcu_fd_sc_mcu7t5v0__mux2_2
X_3223_ FrameData[23] FrameStrobe[2] Inst_RegFile_ConfigMem.Inst_frame2_bit23.Q VDD
+ VDD VSS VSS gf180mcu_fd_sc_mcu7t5v0__latq_1
X_1553_ Inst_RegFile_ConfigMem.Inst_frame7_bit21.Q _0209_ _0211_ _0212_ VDD VDD VSS
+ VSS gf180mcu_fd_sc_mcu7t5v0__oai21_1
XFILLER_39_212 VDD VDD VSS VSS gf180mcu_fd_sc_mcu7t5v0__fillcap_16
X_1484_ A_ADR0 _0147_ VDD VDD VSS VSS gf180mcu_fd_sc_mcu7t5v0__clkinv_1
X_3154_ FrameData[18] FrameStrobe[4] Inst_RegFile_ConfigMem.Inst_frame4_bit18.Q VDD
+ VDD VSS VSS gf180mcu_fd_sc_mcu7t5v0__latq_1
XTAP_TAPCELL_ROW_37_446 VDD VSS gf180mcu_fd_sc_mcu7t5v0__filltie
X_2105_ _1323_ B_ADR0 _0740_ VDD VDD VSS VSS gf180mcu_fd_sc_mcu7t5v0__nand2_1
X_3085_ FrameData[13] FrameStrobe[6] Inst_RegFile_ConfigMem.Inst_frame6_bit13.Q VDD
+ VDD VSS VSS gf180mcu_fd_sc_mcu7t5v0__latq_1
X_2036_ _0670_ _0672_ _0486_ _0673_ VDD VDD VSS VSS gf180mcu_fd_sc_mcu7t5v0__mux2_2
X_2938_ FrameData[26] FrameStrobe[11] Inst_RegFile_ConfigMem.Inst_frame11_bit26.Q
+ VDD VDD VSS VSS gf180mcu_fd_sc_mcu7t5v0__latq_1
XFILLER_50_465 VDD VDD VSS VSS gf180mcu_fd_sc_mcu7t5v0__fill_1
XTAP_TAPCELL_ROW_20_313 VDD VSS gf180mcu_fd_sc_mcu7t5v0__filltie
X_2869_ _0063_ clknet_4_14_0_UserCLK_regs Inst_RegFile_32x4.mem\[18\]\[3\] VDD VDD
+ VSS VSS gf180mcu_fd_sc_mcu7t5v0__dffq_1
XFILLER_53_292 VDD VDD VSS VSS gf180mcu_fd_sc_mcu7t5v0__fill_1
XFILLER_42_96 VDD VDD VSS VSS gf180mcu_fd_sc_mcu7t5v0__fill_1
XFILLER_9_127 VDD VDD VSS VSS gf180mcu_fd_sc_mcu7t5v0__fill_2
XFILLER_68_329 VDD VDD VSS VSS gf180mcu_fd_sc_mcu7t5v0__fillcap_4
XFILLER_3_57 VDD VDD VSS VSS gf180mcu_fd_sc_mcu7t5v0__fill_2
XFILLER_64_524 VDD VDD VSS VSS gf180mcu_fd_sc_mcu7t5v0__fill_1
XFILLER_51_207 VDD VDD VSS VSS gf180mcu_fd_sc_mcu7t5v0__fill_2
XFILLER_51_218 VDD VDD VSS VSS gf180mcu_fd_sc_mcu7t5v0__fill_1
X_2723_ Inst_RegFile_32x4.mem\[18\]\[2\] _1186_ _1229_ _0062_ VDD VDD VSS VSS gf180mcu_fd_sc_mcu7t5v0__mux2_2
XTAP_TAPCELL_ROW_42_493 VDD VSS gf180mcu_fd_sc_mcu7t5v0__filltie
XTAP_TAPCELL_ROW_34_427 VDD VSS gf180mcu_fd_sc_mcu7t5v0__filltie
X_1605_ Inst_RegFile_ConfigMem.Inst_frame4_bit22.Q _0261_ _0262_ VDD VDD VSS VSS gf180mcu_fd_sc_mcu7t5v0__nor2_1
X_2585_ _1269_ Inst_RegFile_ConfigMem.Inst_frame0_bit8.Q Inst_RegFile_ConfigMem.Inst_frame0_bit9.Q
+ _1153_ _1154_ VDD VDD VSS VSS gf180mcu_fd_sc_mcu7t5v0__aoi211_1
X_2654_ Inst_RegFile_32x4.mem\[27\]\[2\] _1186_ _1208_ _0014_ VDD VDD VSS VSS gf180mcu_fd_sc_mcu7t5v0__mux2_2
X_1536_ N4END[1] W2END[4] SS4END[1] Inst_RegFile_switch_matrix.JS2BEG3 Inst_RegFile_ConfigMem.Inst_frame0_bit21.Q
+ Inst_RegFile_ConfigMem.Inst_frame0_bit20.Q _0196_ VDD VDD VSS VSS gf180mcu_fd_sc_mcu7t5v0__mux4_1
X_1398_ Inst_RegFile_ConfigMem.Inst_frame3_bit14.Q _1289_ VDD VDD VSS VSS gf180mcu_fd_sc_mcu7t5v0__clkinv_1
X_1467_ Inst_RegFile_ConfigMem.Inst_frame1_bit6.Q _0130_ VDD VDD VSS VSS gf180mcu_fd_sc_mcu7t5v0__clkinv_1
X_3137_ FrameData[1] FrameStrobe[4] Inst_RegFile_ConfigMem.Inst_frame4_bit1.Q VDD
+ VDD VSS VSS gf180mcu_fd_sc_mcu7t5v0__latq_1
X_3206_ FrameData[6] FrameStrobe[2] Inst_RegFile_ConfigMem.Inst_frame2_bit6.Q VDD
+ VDD VSS VSS gf180mcu_fd_sc_mcu7t5v0__latq_1
X_2019_ _0580_ _0627_ _0638_ _0648_ _0657_ Inst_RegFile_32x4.BD_comb\[1\] VDD VDD
+ VSS VSS gf180mcu_fd_sc_mcu7t5v0__oai32_1
X_3068_ FrameData[28] FrameStrobe[7] Inst_RegFile_ConfigMem.Inst_frame7_bit28.Q VDD
+ VDD VSS VSS gf180mcu_fd_sc_mcu7t5v0__latq_1
XFILLER_27_259 VDD VDD VSS VSS gf180mcu_fd_sc_mcu7t5v0__fill_1
XFILLER_58_384 VDD VDD VSS VSS gf180mcu_fd_sc_mcu7t5v0__fill_1
XFILLER_37_74 VDD VDD VSS VSS gf180mcu_fd_sc_mcu7t5v0__fill_1
XFILLER_37_52 VDD VDD VSS VSS gf180mcu_fd_sc_mcu7t5v0__fillcap_4
XTAP_TAPCELL_ROW_5_196 VDD VSS gf180mcu_fd_sc_mcu7t5v0__filltie
X_2370_ Inst_RegFile_ConfigMem.Inst_frame10_bit16.Q _0972_ _0974_ _0975_ VDD VDD VSS
+ VSS gf180mcu_fd_sc_mcu7t5v0__oai21_1
XFILLER_52_538 VDD VDD VSS VSS gf180mcu_fd_sc_mcu7t5v0__fill_2
XTAP_TAPCELL_ROW_47_530 VDD VSS gf180mcu_fd_sc_mcu7t5v0__filltie
X_2706_ _1182_ Inst_RegFile_32x4.mem\[14\]\[0\] _1226_ _0048_ VDD VDD VSS VSS gf180mcu_fd_sc_mcu7t5v0__mux2_2
XFILLER_20_457 VDD VDD VSS VSS gf180mcu_fd_sc_mcu7t5v0__fill_2
XPHY_EDGE_ROW_58_Left_129 VDD VSS gf180mcu_fd_sc_mcu7t5v0__endcap
X_1519_ _0162_ _0179_ _0180_ VDD VDD VSS VSS gf180mcu_fd_sc_mcu7t5v0__and2_1
X_2637_ _1135_ _1201_ _1202_ VDD VDD VSS VSS gf180mcu_fd_sc_mcu7t5v0__nor2_1
X_2568_ Inst_RegFile_ConfigMem.Inst_frame9_bit30.Q _1136_ _1137_ VDD VDD VSS VSS gf180mcu_fd_sc_mcu7t5v0__nor2_1
X_2499_ BD1 _0468_ Inst_RegFile_switch_matrix.JN2BEG1 _0530_ Inst_RegFile_ConfigMem.Inst_frame11_bit4.Q
+ Inst_RegFile_ConfigMem.Inst_frame11_bit5.Q Inst_RegFile_switch_matrix.E1BEG2 VDD
+ VDD VSS VSS gf180mcu_fd_sc_mcu7t5v0__mux4_1
Xoutput232 net232 W6BEG[4] VDD VDD VSS VSS gf180mcu_fd_sc_mcu7t5v0__buf_1
Xoutput210 net210 W2BEG[0] VDD VDD VSS VSS gf180mcu_fd_sc_mcu7t5v0__buf_1
XPHY_EDGE_ROW_12_Right_12 VDD VSS gf180mcu_fd_sc_mcu7t5v0__endcap
Xoutput243 net243 WW4BEG[14] VDD VDD VSS VSS gf180mcu_fd_sc_mcu7t5v0__buf_1
Xoutput221 net221 W2BEGb[3] VDD VDD VSS VSS gf180mcu_fd_sc_mcu7t5v0__buf_1
XFILLER_28_524 VDD VDD VSS VSS gf180mcu_fd_sc_mcu7t5v0__fill_1
XPHY_EDGE_ROW_21_Right_21 VDD VSS gf180mcu_fd_sc_mcu7t5v0__endcap
XTAP_TAPCELL_ROW_2_166 VDD VSS gf180mcu_fd_sc_mcu7t5v0__filltie
XPHY_EDGE_ROW_67_Left_138 VDD VSS gf180mcu_fd_sc_mcu7t5v0__endcap
XTAP_TAPCELL_ROW_53_577 VDD VSS gf180mcu_fd_sc_mcu7t5v0__filltie
XFILLER_23_273 VDD VDD VSS VSS gf180mcu_fd_sc_mcu7t5v0__fillcap_4
XPHY_EDGE_ROW_30_Right_30 VDD VSS gf180mcu_fd_sc_mcu7t5v0__endcap
XFILLER_7_428 VDD VDD VSS VSS gf180mcu_fd_sc_mcu7t5v0__fill_2
XFILLER_3_2 VDD VDD VSS VSS gf180mcu_fd_sc_mcu7t5v0__fill_2
XFILLER_58_170 VDD VDD VSS VSS gf180mcu_fd_sc_mcu7t5v0__fillcap_4
XFILLER_34_527 VDD VDD VSS VSS gf180mcu_fd_sc_mcu7t5v0__fill_2
X_1870_ NN4END[1] E2END[5] S2END[5] W2END[5] Inst_RegFile_ConfigMem.Inst_frame5_bit28.Q
+ Inst_RegFile_ConfigMem.Inst_frame5_bit29.Q _0514_ VDD VDD VSS VSS gf180mcu_fd_sc_mcu7t5v0__mux4_1
X_3540_ Inst_RegFile_switch_matrix.S4BEG0 net176 VDD VDD VSS VSS gf180mcu_fd_sc_mcu7t5v0__buf_1
XTAP_TAPCELL_ROW_16_279 VDD VSS gf180mcu_fd_sc_mcu7t5v0__filltie
XFILLER_69_413 VDD VDD VSS VSS gf180mcu_fd_sc_mcu7t5v0__fill_1
X_2422_ _1018_ _1017_ Inst_RegFile_ConfigMem.Inst_frame12_bit31.Q Inst_RegFile_switch_matrix.NN4BEG3
+ VDD VDD VSS VSS gf180mcu_fd_sc_mcu7t5v0__mux2_2
X_3471_ N2MID[3] net116 VDD VDD VSS VSS gf180mcu_fd_sc_mcu7t5v0__buf_1
X_2353_ _0960_ _0959_ Inst_RegFile_ConfigMem.Inst_frame9_bit2.Q Inst_RegFile_switch_matrix.WW4BEG0
+ VDD VDD VSS VSS gf180mcu_fd_sc_mcu7t5v0__mux2_2
XFILLER_36_2 VDD VDD VSS VSS gf180mcu_fd_sc_mcu7t5v0__fillcap_4