* NGSPICE file created from W_IO.ext - technology: gf180mcuD

* Black-box entry subcircuit for gf180mcu_fd_sc_mcu7t5v0__filltie abstract view
.subckt gf180mcu_fd_sc_mcu7t5v0__filltie VDD VSS
.ends

* Black-box entry subcircuit for gf180mcu_fd_sc_mcu7t5v0__fill_1 abstract view
.subckt gf180mcu_fd_sc_mcu7t5v0__fill_1 VDD VNW VPW VSS
.ends

* Black-box entry subcircuit for gf180mcu_fd_sc_mcu7t5v0__fillcap_32 abstract view
.subckt gf180mcu_fd_sc_mcu7t5v0__fillcap_32 VDD VNW VPW VSS
.ends

* Black-box entry subcircuit for gf180mcu_fd_sc_mcu7t5v0__fillcap_4 abstract view
.subckt gf180mcu_fd_sc_mcu7t5v0__fillcap_4 VDD VNW VPW VSS
.ends

* Black-box entry subcircuit for gf180mcu_fd_sc_mcu7t5v0__buf_2 abstract view
.subckt gf180mcu_fd_sc_mcu7t5v0__buf_2 I Z VDD VNW VPW VSS
.ends

* Black-box entry subcircuit for gf180mcu_fd_sc_mcu7t5v0__endcap abstract view
.subckt gf180mcu_fd_sc_mcu7t5v0__endcap VDD VSS
.ends

* Black-box entry subcircuit for gf180mcu_fd_sc_mcu7t5v0__fillcap_8 abstract view
.subckt gf180mcu_fd_sc_mcu7t5v0__fillcap_8 VDD VNW VPW VSS
.ends

* Black-box entry subcircuit for gf180mcu_fd_sc_mcu7t5v0__fill_2 abstract view
.subckt gf180mcu_fd_sc_mcu7t5v0__fill_2 VDD VNW VPW VSS
.ends

* Black-box entry subcircuit for gf180mcu_fd_sc_mcu7t5v0__fillcap_64 abstract view
.subckt gf180mcu_fd_sc_mcu7t5v0__fillcap_64 VDD VNW VPW VSS
.ends

* Black-box entry subcircuit for gf180mcu_fd_sc_mcu7t5v0__latq_1 abstract view
.subckt gf180mcu_fd_sc_mcu7t5v0__latq_1 D E Q VDD VNW VPW VSS
.ends

* Black-box entry subcircuit for gf180mcu_fd_sc_mcu7t5v0__nor2_1 abstract view
.subckt gf180mcu_fd_sc_mcu7t5v0__nor2_1 A1 A2 ZN VDD VNW VPW VSS
.ends

* Black-box entry subcircuit for gf180mcu_fd_sc_mcu7t5v0__mux4_1 abstract view
.subckt gf180mcu_fd_sc_mcu7t5v0__mux4_1 I0 I1 I2 I3 S0 S1 Z VDD VNW VPW VSS
.ends

* Black-box entry subcircuit for gf180mcu_fd_sc_mcu7t5v0__fillcap_16 abstract view
.subckt gf180mcu_fd_sc_mcu7t5v0__fillcap_16 VDD VNW VPW VSS
.ends

* Black-box entry subcircuit for gf180mcu_fd_sc_mcu7t5v0__inv_1 abstract view
.subckt gf180mcu_fd_sc_mcu7t5v0__inv_1 I ZN VDD VNW VPW VSS
.ends

* Black-box entry subcircuit for gf180mcu_fd_sc_mcu7t5v0__buf_4 abstract view
.subckt gf180mcu_fd_sc_mcu7t5v0__buf_4 I Z VDD VNW VPW VSS
.ends

* Black-box entry subcircuit for gf180mcu_fd_sc_mcu7t5v0__nand2_1 abstract view
.subckt gf180mcu_fd_sc_mcu7t5v0__nand2_1 A1 A2 ZN VDD VNW VPW VSS
.ends

* Black-box entry subcircuit for gf180mcu_fd_sc_mcu7t5v0__clkbuf_16 abstract view
.subckt gf180mcu_fd_sc_mcu7t5v0__clkbuf_16 I Z VDD VNW VPW VSS
.ends

* Black-box entry subcircuit for gf180mcu_fd_sc_mcu7t5v0__and3_1 abstract view
.subckt gf180mcu_fd_sc_mcu7t5v0__and3_1 A1 A2 A3 Z VDD VNW VPW VSS
.ends

* Black-box entry subcircuit for gf180mcu_fd_sc_mcu7t5v0__aoi211_1 abstract view
.subckt gf180mcu_fd_sc_mcu7t5v0__aoi211_1 A1 A2 B C ZN VDD VNW VPW VSS
.ends

* Black-box entry subcircuit for gf180mcu_fd_sc_mcu7t5v0__oai32_1 abstract view
.subckt gf180mcu_fd_sc_mcu7t5v0__oai32_1 A1 A2 A3 B1 B2 ZN VDD VNW VPW VSS
.ends

* Black-box entry subcircuit for gf180mcu_fd_sc_mcu7t5v0__nand3_1 abstract view
.subckt gf180mcu_fd_sc_mcu7t5v0__nand3_1 A1 A2 A3 ZN VDD VNW VPW VSS
.ends

* Black-box entry subcircuit for gf180mcu_fd_sc_mcu7t5v0__mux2_2 abstract view
.subckt gf180mcu_fd_sc_mcu7t5v0__mux2_2 I0 I1 S Z VDD VNW VPW VSS
.ends

* Black-box entry subcircuit for gf180mcu_fd_sc_mcu7t5v0__oai21_1 abstract view
.subckt gf180mcu_fd_sc_mcu7t5v0__oai21_1 A1 A2 B ZN VDD VNW VPW VSS
.ends

* Black-box entry subcircuit for gf180mcu_fd_sc_mcu7t5v0__oai32_2 abstract view
.subckt gf180mcu_fd_sc_mcu7t5v0__oai32_2 A1 A2 A3 B1 B2 ZN VDD VNW VPW VSS
.ends

* Black-box entry subcircuit for gf180mcu_fd_sc_mcu7t5v0__nor3_1 abstract view
.subckt gf180mcu_fd_sc_mcu7t5v0__nor3_1 A1 A2 A3 ZN VDD VNW VPW VSS
.ends

* Black-box entry subcircuit for gf180mcu_fd_sc_mcu7t5v0__buf_1 abstract view
.subckt gf180mcu_fd_sc_mcu7t5v0__buf_1 I Z VDD VNW VPW VSS
.ends

* Black-box entry subcircuit for gf180mcu_fd_sc_mcu7t5v0__dffq_4 abstract view
.subckt gf180mcu_fd_sc_mcu7t5v0__dffq_4 D CLK Q VDD VNW VPW VSS
.ends

* Black-box entry subcircuit for gf180mcu_fd_sc_mcu7t5v0__clkbuf_1 abstract view
.subckt gf180mcu_fd_sc_mcu7t5v0__clkbuf_1 I Z VDD VNW VPW VSS
.ends

.subckt W_IO A_I_top A_O_top A_T_top B_I_top B_O_top B_T_top E1BEG[0] E1BEG[1] E1BEG[2]
+ E1BEG[3] E2BEG[0] E2BEG[1] E2BEG[2] E2BEG[3] E2BEG[4] E2BEG[5] E2BEG[6] E2BEG[7]
+ E2BEGb[0] E2BEGb[1] E2BEGb[2] E2BEGb[3] E2BEGb[4] E2BEGb[5] E2BEGb[6] E2BEGb[7]
+ E6BEG[0] E6BEG[10] E6BEG[11] E6BEG[1] E6BEG[2] E6BEG[3] E6BEG[4] E6BEG[5] E6BEG[6]
+ E6BEG[7] E6BEG[8] E6BEG[9] EE4BEG[0] EE4BEG[10] EE4BEG[11] EE4BEG[12] EE4BEG[13]
+ EE4BEG[14] EE4BEG[15] EE4BEG[1] EE4BEG[2] EE4BEG[3] EE4BEG[4] EE4BEG[5] EE4BEG[6]
+ EE4BEG[7] EE4BEG[8] EE4BEG[9] FrameData[0] FrameData[10] FrameData[11] FrameData[12]
+ FrameData[13] FrameData[14] FrameData[15] FrameData[16] FrameData[17] FrameData[18]
+ FrameData[19] FrameData[1] FrameData[20] FrameData[21] FrameData[22] FrameData[23]
+ FrameData[24] FrameData[25] FrameData[26] FrameData[27] FrameData[28] FrameData[29]
+ FrameData[2] FrameData[30] FrameData[31] FrameData[3] FrameData[4] FrameData[5]
+ FrameData[6] FrameData[7] FrameData[8] FrameData[9] FrameData_O[0] FrameData_O[10]
+ FrameData_O[11] FrameData_O[12] FrameData_O[13] FrameData_O[14] FrameData_O[15]
+ FrameData_O[16] FrameData_O[17] FrameData_O[18] FrameData_O[19] FrameData_O[1] FrameData_O[20]
+ FrameData_O[21] FrameData_O[22] FrameData_O[23] FrameData_O[24] FrameData_O[25]
+ FrameData_O[26] FrameData_O[27] FrameData_O[28] FrameData_O[29] FrameData_O[2] FrameData_O[30]
+ FrameData_O[31] FrameData_O[3] FrameData_O[4] FrameData_O[5] FrameData_O[6] FrameData_O[7]
+ FrameData_O[8] FrameData_O[9] FrameStrobe[0] FrameStrobe[10] FrameStrobe[11] FrameStrobe[12]
+ FrameStrobe[13] FrameStrobe[14] FrameStrobe[15] FrameStrobe[16] FrameStrobe[17]
+ FrameStrobe[18] FrameStrobe[19] FrameStrobe[1] FrameStrobe[2] FrameStrobe[3] FrameStrobe[4]
+ FrameStrobe[5] FrameStrobe[6] FrameStrobe[7] FrameStrobe[8] FrameStrobe[9] FrameStrobe_O[0]
+ FrameStrobe_O[10] FrameStrobe_O[11] FrameStrobe_O[12] FrameStrobe_O[13] FrameStrobe_O[14]
+ FrameStrobe_O[15] FrameStrobe_O[16] FrameStrobe_O[17] FrameStrobe_O[18] FrameStrobe_O[19]
+ FrameStrobe_O[1] FrameStrobe_O[2] FrameStrobe_O[3] FrameStrobe_O[4] FrameStrobe_O[5]
+ FrameStrobe_O[6] FrameStrobe_O[7] FrameStrobe_O[8] FrameStrobe_O[9] UserCLK UserCLKo
+ VDD VSS W1END[0] W1END[1] W1END[2] W1END[3] W2END[0] W2END[1] W2END[2] W2END[3]
+ W2END[4] W2END[5] W2END[6] W2END[7] W2MID[0] W2MID[1] W2MID[2] W2MID[3] W2MID[4]
+ W2MID[5] W2MID[6] W2MID[7] W6END[0] W6END[10] W6END[11] W6END[1] W6END[2] W6END[3]
+ W6END[4] W6END[5] W6END[6] W6END[7] W6END[8] W6END[9] WW4END[0] WW4END[10] WW4END[11]
+ WW4END[12] WW4END[13] WW4END[14] WW4END[15] WW4END[1] WW4END[2] WW4END[3] WW4END[4]
+ WW4END[5] WW4END[6] WW4END[7] WW4END[8] WW4END[9]
XTAP_TAPCELL_ROW_49_294 VDD VSS gf180mcu_fd_sc_mcu7t5v0__filltie
XFILLER_22_111 VDD VDD VSS VSS gf180mcu_fd_sc_mcu7t5v0__fill_1
XFILLER_22_177 VDD VDD VSS VSS gf180mcu_fd_sc_mcu7t5v0__fillcap_32
XFILLER_52_18 VDD VDD VSS VSS gf180mcu_fd_sc_mcu7t5v0__fillcap_4
XFILLER_13_133 VDD VDD VSS VSS gf180mcu_fd_sc_mcu7t5v0__fillcap_4
X_294_ FrameStrobe[4] net198 VDD VDD VSS VSS gf180mcu_fd_sc_mcu7t5v0__buf_2
XPHY_EDGE_ROW_39_Left_110 VDD VSS gf180mcu_fd_sc_mcu7t5v0__endcap
XFILLER_42_95 VDD VDD VSS VSS gf180mcu_fd_sc_mcu7t5v0__fillcap_8
XTAP_TAPCELL_ROW_8_170 VDD VSS gf180mcu_fd_sc_mcu7t5v0__filltie
XFILLER_36_225 VDD VDD VSS VSS gf180mcu_fd_sc_mcu7t5v0__fill_2
XTAP_TAPCELL_ROW_46_286 VDD VSS gf180mcu_fd_sc_mcu7t5v0__filltie
XFILLER_51_206 VDD VDD VSS VSS gf180mcu_fd_sc_mcu7t5v0__fillcap_4
XFILLER_6_107 VDD VDD VSS VSS gf180mcu_fd_sc_mcu7t5v0__fillcap_64
XTAP_TAPCELL_ROW_5_162 VDD VSS gf180mcu_fd_sc_mcu7t5v0__filltie
XTAP_TAPCELL_ROW_28_231 VDD VSS gf180mcu_fd_sc_mcu7t5v0__filltie
XFILLER_53_72 VDD VDD VSS VSS gf180mcu_fd_sc_mcu7t5v0__fillcap_64
X_277_ net13 net162 VDD VDD VSS VSS gf180mcu_fd_sc_mcu7t5v0__buf_2
XTAP_TAPCELL_ROW_2_154 VDD VSS gf180mcu_fd_sc_mcu7t5v0__filltie
XFILLER_59_136 VDD VDD VSS VSS gf180mcu_fd_sc_mcu7t5v0__fillcap_4
XFILLER_15_206 VDD VDD VSS VSS gf180mcu_fd_sc_mcu7t5v0__fillcap_4
XTAP_TAPCELL_ROW_25_223 VDD VSS gf180mcu_fd_sc_mcu7t5v0__filltie
XFILLER_30_209 VDD VDD VSS VSS gf180mcu_fd_sc_mcu7t5v0__fillcap_4
X_200_ net17 net32 Inst_W_IO_ConfigMem.Inst_frame1_bit22.Q VDD VDD VSS VSS gf180mcu_fd_sc_mcu7t5v0__latq_1
X_131_ Inst_W_IO_ConfigMem.Inst_frame0_bit31.Q _037_ _038_ VDD VDD VSS VSS gf180mcu_fd_sc_mcu7t5v0__nor2_1
X_062_ net60 net61 net62 net63 Inst_W_IO_ConfigMem.Inst_frame0_bit18.Q Inst_W_IO_ConfigMem.Inst_frame0_bit19.Q
+ _019_ VDD VDD VSS VSS gf180mcu_fd_sc_mcu7t5v0__mux4_1
XFILLER_48_61 VDD VDD VSS VSS gf180mcu_fd_sc_mcu7t5v0__fillcap_16
XFILLER_0_57 VDD VDD VSS VSS gf180mcu_fd_sc_mcu7t5v0__fillcap_8
X_329_ Inst_W_IO_switch_matrix.E2BEGb6 net122 VDD VDD VSS VSS gf180mcu_fd_sc_mcu7t5v0__buf_2
XPHY_EDGE_ROW_24_Left_95 VDD VSS gf180mcu_fd_sc_mcu7t5v0__endcap
XFILLER_12_209 VDD VDD VSS VSS gf180mcu_fd_sc_mcu7t5v0__fillcap_16
XFILLER_69_27 VDD VDD VSS VSS gf180mcu_fd_sc_mcu7t5v0__fillcap_16
XFILLER_11_220 VDD VDD VSS VSS gf180mcu_fd_sc_mcu7t5v0__fillcap_4
X_045_ net57 _003_ VDD VDD VSS VSS gf180mcu_fd_sc_mcu7t5v0__inv_1
X_114_ net71 net97 net90 net81 Inst_W_IO_ConfigMem.Inst_frame3_bit26.Q Inst_W_IO_ConfigMem.Inst_frame3_bit27.Q
+ Inst_W_IO_switch_matrix.E2BEG0 VDD VDD VSS VSS gf180mcu_fd_sc_mcu7t5v0__mux4_1
XFILLER_7_224 VDD VDD VSS VSS gf180mcu_fd_sc_mcu7t5v0__fill_1
XFILLER_38_117 VDD VDD VSS VSS gf180mcu_fd_sc_mcu7t5v0__fill_1
XFILLER_61_142 VDD VDD VSS VSS gf180mcu_fd_sc_mcu7t5v0__fillcap_64
XFILLER_29_139 VDD VDD VSS VSS gf180mcu_fd_sc_mcu7t5v0__fill_1
XFILLER_37_194 VDD VDD VSS VSS gf180mcu_fd_sc_mcu7t5v0__fillcap_16
XFILLER_6_34 VDD VDD VSS VSS gf180mcu_fd_sc_mcu7t5v0__fill_1
XFILLER_61_72 VDD VDD VSS VSS gf180mcu_fd_sc_mcu7t5v0__fillcap_64
XFILLER_19_194 VDD VDD VSS VSS gf180mcu_fd_sc_mcu7t5v0__fillcap_16
XFILLER_57_212 VDD VDD VSS VSS gf180mcu_fd_sc_mcu7t5v0__fill_1
XPHY_EDGE_ROW_11_Left_82 VDD VSS gf180mcu_fd_sc_mcu7t5v0__endcap
Xoutput86 net206 A_T_top VDD VDD VSS VSS gf180mcu_fd_sc_mcu7t5v0__buf_4
Xoutput97 net112 E2BEG[4] VDD VDD VSS VSS gf180mcu_fd_sc_mcu7t5v0__buf_4
XFILLER_39_212 VDD VDD VSS VSS gf180mcu_fd_sc_mcu7t5v0__fill_1
XTAP_TAPCELL_ROW_49_295 VDD VSS gf180mcu_fd_sc_mcu7t5v0__filltie
XFILLER_45_204 VDD VDD VSS VSS gf180mcu_fd_sc_mcu7t5v0__fillcap_4
XFILLER_9_138 VDD VDD VSS VSS gf180mcu_fd_sc_mcu7t5v0__fill_2
X_293_ net27 net197 VDD VDD VSS VSS gf180mcu_fd_sc_mcu7t5v0__buf_2
XTAP_TAPCELL_ROW_8_171 VDD VSS gf180mcu_fd_sc_mcu7t5v0__filltie
XFILLER_8_171 VDD VDD VSS VSS gf180mcu_fd_sc_mcu7t5v0__fillcap_4
XFILLER_10_104 VDD VDD VSS VSS gf180mcu_fd_sc_mcu7t5v0__fill_1
XTAP_TAPCELL_ROW_5_163 VDD VSS gf180mcu_fd_sc_mcu7t5v0__filltie
XTAP_TAPCELL_ROW_28_232 VDD VSS gf180mcu_fd_sc_mcu7t5v0__filltie
X_276_ net12 net161 VDD VDD VSS VSS gf180mcu_fd_sc_mcu7t5v0__buf_2
XFILLER_68_159 VDD VDD VSS VSS gf180mcu_fd_sc_mcu7t5v0__fill_2
XPHY_EDGE_ROW_12_Right_12 VDD VSS gf180mcu_fd_sc_mcu7t5v0__endcap
XPHY_EDGE_ROW_58_Left_129 VDD VSS gf180mcu_fd_sc_mcu7t5v0__endcap
XFILLER_67_170 VDD VDD VSS VSS gf180mcu_fd_sc_mcu7t5v0__fill_1
XPHY_EDGE_ROW_21_Right_21 VDD VSS gf180mcu_fd_sc_mcu7t5v0__endcap
XPHY_EDGE_ROW_67_Left_138 VDD VSS gf180mcu_fd_sc_mcu7t5v0__endcap
X_130_ net71 _006_ _037_ VDD VDD VSS VSS gf180mcu_fd_sc_mcu7t5v0__nand2_1
X_061_ Inst_W_IO_ConfigMem.Inst_frame0_bit20.Q _017_ _018_ VDD VDD VSS VSS gf180mcu_fd_sc_mcu7t5v0__nor2_1
XPHY_EDGE_ROW_30_Right_30 VDD VSS gf180mcu_fd_sc_mcu7t5v0__endcap
XFILLER_2_177 VDD VDD VSS VSS gf180mcu_fd_sc_mcu7t5v0__fillcap_32
XFILLER_3_2 VDD VDD VSS VSS gf180mcu_fd_sc_mcu7t5v0__fillcap_64
XFILLER_0_36 VDD VDD VSS VSS gf180mcu_fd_sc_mcu7t5v0__fill_1
X_328_ Inst_W_IO_switch_matrix.E2BEGb5 net121 VDD VDD VSS VSS gf180mcu_fd_sc_mcu7t5v0__buf_2
X_259_ net14 net163 VDD VDD VSS VSS gf180mcu_fd_sc_mcu7t5v0__buf_2
XFILLER_49_192 VDD VDD VSS VSS gf180mcu_fd_sc_mcu7t5v0__fillcap_16
XTAP_TAPCELL_ROW_54_308 VDD VSS gf180mcu_fd_sc_mcu7t5v0__filltie
XFILLER_56_107 VDD VDD VSS VSS gf180mcu_fd_sc_mcu7t5v0__fillcap_64
XFILLER_64_195 VDD VDD VSS VSS gf180mcu_fd_sc_mcu7t5v0__fill_1
X_113_ net70 net96 net89 net80 Inst_W_IO_ConfigMem.Inst_frame3_bit28.Q Inst_W_IO_ConfigMem.Inst_frame3_bit29.Q
+ Inst_W_IO_switch_matrix.E2BEG1 VDD VDD VSS VSS gf180mcu_fd_sc_mcu7t5v0__mux4_1
X_044_ net56 _002_ VDD VDD VSS VSS gf180mcu_fd_sc_mcu7t5v0__inv_1
XFILLER_38_107 VDD VDD VSS VSS gf180mcu_fd_sc_mcu7t5v0__fillcap_8
XFILLER_59_72 VDD VDD VSS VSS gf180mcu_fd_sc_mcu7t5v0__fillcap_64
XFILLER_37_162 VDD VDD VSS VSS gf180mcu_fd_sc_mcu7t5v0__fillcap_32
XFILLER_29_86 VDD VDD VSS VSS gf180mcu_fd_sc_mcu7t5v0__fill_1
XFILLER_19_162 VDD VDD VSS VSS gf180mcu_fd_sc_mcu7t5v0__fillcap_32
XPHY_EDGE_ROW_6_Right_6 VDD VSS gf180mcu_fd_sc_mcu7t5v0__endcap
XFILLER_40_124 VDD VDD VSS VSS gf180mcu_fd_sc_mcu7t5v0__fill_2
XFILLER_31_10 VDD VDD VSS VSS gf180mcu_fd_sc_mcu7t5v0__fill_1
XFILLER_31_43 VDD VDD VSS VSS gf180mcu_fd_sc_mcu7t5v0__fillcap_4
Xoutput87 net205 B_I_top VDD VDD VSS VSS gf180mcu_fd_sc_mcu7t5v0__buf_4
Xoutput98 net113 E2BEG[5] VDD VDD VSS VSS gf180mcu_fd_sc_mcu7t5v0__buf_4
XFILLER_31_146 VDD VDD VSS VSS gf180mcu_fd_sc_mcu7t5v0__fill_2
XPHY_EDGE_ROW_59_Right_59 VDD VSS gf180mcu_fd_sc_mcu7t5v0__endcap
XPHY_EDGE_ROW_68_Right_68 VDD VSS gf180mcu_fd_sc_mcu7t5v0__endcap
XFILLER_26_10 VDD VDD VSS VSS gf180mcu_fd_sc_mcu7t5v0__fillcap_4
XFILLER_13_113 VDD VDD VSS VSS gf180mcu_fd_sc_mcu7t5v0__fillcap_4
X_292_ net50 net196 VDD VDD VSS VSS gf180mcu_fd_sc_mcu7t5v0__buf_2
XFILLER_67_72 VDD VDD VSS VSS gf180mcu_fd_sc_mcu7t5v0__fillcap_64
XTAP_TAPCELL_ROW_8_172 VDD VSS gf180mcu_fd_sc_mcu7t5v0__filltie
XFILLER_12_34 VDD VDD VSS VSS gf180mcu_fd_sc_mcu7t5v0__fill_1
X_275_ net11 net160 VDD VDD VSS VSS gf180mcu_fd_sc_mcu7t5v0__buf_2
X_344_ Inst_W_IO_switch_matrix.EE4BEG1 net143 VDD VDD VSS VSS gf180mcu_fd_sc_mcu7t5v0__buf_2
XFILLER_5_142 VDD VDD VSS VSS gf180mcu_fd_sc_mcu7t5v0__fillcap_64
XTAP_TAPCELL_ROW_57_317 VDD VSS gf180mcu_fd_sc_mcu7t5v0__filltie
XFILLER_2_101 VDD VDD VSS VSS gf180mcu_fd_sc_mcu7t5v0__fillcap_4
X_060_ net56 net57 net58 net59 Inst_W_IO_ConfigMem.Inst_frame0_bit18.Q Inst_W_IO_ConfigMem.Inst_frame0_bit19.Q
+ _017_ VDD VDD VSS VSS gf180mcu_fd_sc_mcu7t5v0__mux4_1
XFILLER_58_171 VDD VDD VSS VSS gf180mcu_fd_sc_mcu7t5v0__fillcap_4
XTAP_TAPCELL_ROW_31_239 VDD VSS gf180mcu_fd_sc_mcu7t5v0__filltie
X_327_ Inst_W_IO_switch_matrix.E2BEGb4 net120 VDD VDD VSS VSS gf180mcu_fd_sc_mcu7t5v0__buf_2
X_189_ net5 net34 Inst_W_IO_ConfigMem.Inst_frame1_bit11.Q VDD VDD VSS VSS gf180mcu_fd_sc_mcu7t5v0__latq_1
X_258_ net3 net152 VDD VDD VSS VSS gf180mcu_fd_sc_mcu7t5v0__buf_2
XTAP_TAPCELL_ROW_54_309 VDD VSS gf180mcu_fd_sc_mcu7t5v0__filltie
XFILLER_18_33 VDD VDD VSS VSS gf180mcu_fd_sc_mcu7t5v0__fill_2
XFILLER_34_10 VDD VDD VSS VSS gf180mcu_fd_sc_mcu7t5v0__fillcap_4
X_043_ Inst_W_IO_ConfigMem.Inst_frame0_bit27.Q _001_ VDD VDD VSS VSS gf180mcu_fd_sc_mcu7t5v0__inv_1
X_112_ net69 net95 net88 net79 Inst_W_IO_ConfigMem.Inst_frame3_bit30.Q Inst_W_IO_ConfigMem.Inst_frame3_bit31.Q
+ Inst_W_IO_switch_matrix.E2BEG2 VDD VDD VSS VSS gf180mcu_fd_sc_mcu7t5v0__mux4_1
XFILLER_52_177 VDD VDD VSS VSS gf180mcu_fd_sc_mcu7t5v0__fillcap_32
XFILLER_29_10 VDD VDD VSS VSS gf180mcu_fd_sc_mcu7t5v0__fillcap_4
XFILLER_45_42 VDD VDD VSS VSS gf180mcu_fd_sc_mcu7t5v0__fillcap_4
XFILLER_34_111 VDD VDD VSS VSS gf180mcu_fd_sc_mcu7t5v0__fill_2
XFILLER_34_177 VDD VDD VSS VSS gf180mcu_fd_sc_mcu7t5v0__fillcap_32
Xoutput88 net103 B_T_top VDD VDD VSS VSS gf180mcu_fd_sc_mcu7t5v0__buf_4
Xoutput99 net114 E2BEG[6] VDD VDD VSS VSS gf180mcu_fd_sc_mcu7t5v0__buf_4
XFILLER_48_225 VDD VDD VSS VSS gf180mcu_fd_sc_mcu7t5v0__fill_2
XFILLER_16_177 VDD VDD VSS VSS gf180mcu_fd_sc_mcu7t5v0__fillcap_32
XFILLER_22_103 VDD VDD VSS VSS gf180mcu_fd_sc_mcu7t5v0__fill_2
XFILLER_60_209 VDD VDD VSS VSS gf180mcu_fd_sc_mcu7t5v0__fill_2
X_291_ net36 net195 VDD VDD VSS VSS gf180mcu_fd_sc_mcu7t5v0__buf_2
XFILLER_42_209 VDD VDD VSS VSS gf180mcu_fd_sc_mcu7t5v0__fillcap_4
XFILLER_37_32 VDD VDD VSS VSS gf180mcu_fd_sc_mcu7t5v0__fillcap_4
XFILLER_37_76 VDD VDD VSS VSS gf180mcu_fd_sc_mcu7t5v0__fill_1
XFILLER_53_42 VDD VDD VSS VSS gf180mcu_fd_sc_mcu7t5v0__fillcap_16
X_274_ net10 net159 VDD VDD VSS VSS gf180mcu_fd_sc_mcu7t5v0__buf_2
X_343_ Inst_W_IO_switch_matrix.EE4BEG0 net136 VDD VDD VSS VSS gf180mcu_fd_sc_mcu7t5v0__buf_2
XFILLER_68_139 VDD VDD VSS VSS gf180mcu_fd_sc_mcu7t5v0__fillcap_16
XFILLER_24_209 VDD VDD VSS VSS gf180mcu_fd_sc_mcu7t5v0__fillcap_16
XTAP_TAPCELL_ROW_34_248 VDD VSS gf180mcu_fd_sc_mcu7t5v0__filltie
XFILLER_23_220 VDD VDD VSS VSS gf180mcu_fd_sc_mcu7t5v0__fillcap_4
XTAP_TAPCELL_ROW_57_318 VDD VSS gf180mcu_fd_sc_mcu7t5v0__filltie
XFILLER_9_58 VDD VDD VSS VSS gf180mcu_fd_sc_mcu7t5v0__fillcap_4
X_326_ Inst_W_IO_switch_matrix.E2BEGb3 net119 VDD VDD VSS VSS gf180mcu_fd_sc_mcu7t5v0__buf_2
X_257_ Inst_W_IO_switch_matrix.EE4BEG15 net142 VDD VDD VSS VSS gf180mcu_fd_sc_mcu7t5v0__buf_2
X_188_ net4 net34 Inst_W_IO_ConfigMem.Inst_frame1_bit10.Q VDD VDD VSS VSS gf180mcu_fd_sc_mcu7t5v0__latq_1
XFILLER_50_6 VDD VDD VSS VSS gf180mcu_fd_sc_mcu7t5v0__fill_1
XTAP_TAPCELL_ROW_62_332 VDD VSS gf180mcu_fd_sc_mcu7t5v0__filltie
XFILLER_55_142 VDD VDD VSS VSS gf180mcu_fd_sc_mcu7t5v0__fillcap_64
XFILLER_70_101 VDD VDD VSS VSS gf180mcu_fd_sc_mcu7t5v0__fill_1
XFILLER_11_212 VDD VDD VSS VSS gf180mcu_fd_sc_mcu7t5v0__fillcap_8
X_042_ net69 _000_ VDD VDD VSS VSS gf180mcu_fd_sc_mcu7t5v0__inv_1
X_111_ net68 net94 net87 net78 Inst_W_IO_ConfigMem.Inst_frame2_bit0.Q Inst_W_IO_ConfigMem.Inst_frame2_bit1.Q
+ Inst_W_IO_switch_matrix.E2BEG3 VDD VDD VSS VSS gf180mcu_fd_sc_mcu7t5v0__mux4_1
XFILLER_50_98 VDD VDD VSS VSS gf180mcu_fd_sc_mcu7t5v0__fillcap_4
XPHY_EDGE_ROW_28_Left_99 VDD VSS gf180mcu_fd_sc_mcu7t5v0__endcap
X_309_ FrameStrobe[19] net194 VDD VDD VSS VSS gf180mcu_fd_sc_mcu7t5v0__buf_2
XFILLER_69_212 VDD VDD VSS VSS gf180mcu_fd_sc_mcu7t5v0__fill_1
XFILLER_37_131 VDD VDD VSS VSS gf180mcu_fd_sc_mcu7t5v0__fill_1
XFILLER_52_101 VDD VDD VSS VSS gf180mcu_fd_sc_mcu7t5v0__fillcap_4
XFILLER_52_123 VDD VDD VSS VSS gf180mcu_fd_sc_mcu7t5v0__fill_2
XFILLER_20_79 VDD VDD VSS VSS gf180mcu_fd_sc_mcu7t5v0__fill_2
XFILLER_29_66 VDD VDD VSS VSS gf180mcu_fd_sc_mcu7t5v0__fillcap_4
XFILLER_43_178 VDD VDD VSS VSS gf180mcu_fd_sc_mcu7t5v0__fillcap_32
XFILLER_61_42 VDD VDD VSS VSS gf180mcu_fd_sc_mcu7t5v0__fillcap_16
XFILLER_6_37 VDD VDD VSS VSS gf180mcu_fd_sc_mcu7t5v0__fillcap_64
XFILLER_40_126 VDD VDD VSS VSS gf180mcu_fd_sc_mcu7t5v0__fill_1
XFILLER_31_67 VDD VDD VSS VSS gf180mcu_fd_sc_mcu7t5v0__fill_2
Xoutput89 net104 E1BEG[0] VDD VDD VSS VSS gf180mcu_fd_sc_mcu7t5v0__buf_4
XFILLER_16_167 VDD VDD VSS VSS gf180mcu_fd_sc_mcu7t5v0__fillcap_8
XFILLER_31_148 VDD VDD VSS VSS gf180mcu_fd_sc_mcu7t5v0__fill_1
XPHY_EDGE_ROW_15_Left_86 VDD VSS gf180mcu_fd_sc_mcu7t5v0__endcap
XFILLER_30_170 VDD VDD VSS VSS gf180mcu_fd_sc_mcu7t5v0__fillcap_4
XFILLER_13_137 VDD VDD VSS VSS gf180mcu_fd_sc_mcu7t5v0__fill_2
X_290_ net41 net184 VDD VDD VSS VSS gf180mcu_fd_sc_mcu7t5v0__buf_2
XFILLER_27_207 VDD VDD VSS VSS gf180mcu_fd_sc_mcu7t5v0__fill_2
XTAP_TAPCELL_ROW_37_257 VDD VSS gf180mcu_fd_sc_mcu7t5v0__filltie
XFILLER_10_107 VDD VDD VSS VSS gf180mcu_fd_sc_mcu7t5v0__fillcap_64
X_342_ Inst_W_IO_switch_matrix.E6BEG11 net126 VDD VDD VSS VSS gf180mcu_fd_sc_mcu7t5v0__buf_2
XFILLER_53_10 VDD VDD VSS VSS gf180mcu_fd_sc_mcu7t5v0__fillcap_32
XTAP_TAPCELL_ROW_11_179 VDD VSS gf180mcu_fd_sc_mcu7t5v0__filltie
X_273_ net9 net158 VDD VDD VSS VSS gf180mcu_fd_sc_mcu7t5v0__buf_2
XFILLER_68_107 VDD VDD VSS VSS gf180mcu_fd_sc_mcu7t5v0__fillcap_32
XTAP_TAPCELL_ROW_34_249 VDD VSS gf180mcu_fd_sc_mcu7t5v0__filltie
XTAP_TAPCELL_ROW_57_319 VDD VSS gf180mcu_fd_sc_mcu7t5v0__filltie
XFILLER_67_195 VDD VDD VSS VSS gf180mcu_fd_sc_mcu7t5v0__fill_1
XTAP_TAPCELL_ROW_65_341 VDD VSS gf180mcu_fd_sc_mcu7t5v0__filltie
XPHY_EDGE_ROW_36_Left_107 VDD VSS gf180mcu_fd_sc_mcu7t5v0__endcap
XFILLER_48_10 VDD VDD VSS VSS gf180mcu_fd_sc_mcu7t5v0__fillcap_4
XPHY_EDGE_ROW_45_Left_116 VDD VSS gf180mcu_fd_sc_mcu7t5v0__endcap
X_325_ Inst_W_IO_switch_matrix.E2BEGb2 net118 VDD VDD VSS VSS gf180mcu_fd_sc_mcu7t5v0__buf_2
XPHY_EDGE_ROW_54_Left_125 VDD VSS gf180mcu_fd_sc_mcu7t5v0__endcap
X_187_ net49 net32 Inst_W_IO_ConfigMem.Inst_frame1_bit9.Q VDD VDD VSS VSS gf180mcu_fd_sc_mcu7t5v0__latq_1
X_256_ Inst_W_IO_switch_matrix.EE4BEG14 net141 VDD VDD VSS VSS gf180mcu_fd_sc_mcu7t5v0__buf_2
XPHY_EDGE_ROW_63_Left_134 VDD VSS gf180mcu_fd_sc_mcu7t5v0__endcap
XTAP_TAPCELL_ROW_62_333 VDD VSS gf180mcu_fd_sc_mcu7t5v0__filltie
XFILLER_70_135 VDD VDD VSS VSS gf180mcu_fd_sc_mcu7t5v0__fill_1
XFILLER_11_224 VDD VDD VSS VSS gf180mcu_fd_sc_mcu7t5v0__fill_1
X_110_ net67 net93 net86 net77 Inst_W_IO_ConfigMem.Inst_frame2_bit2.Q Inst_W_IO_ConfigMem.Inst_frame2_bit3.Q
+ Inst_W_IO_switch_matrix.E2BEG4 VDD VDD VSS VSS gf180mcu_fd_sc_mcu7t5v0__mux4_1
XFILLER_7_206 VDD VDD VSS VSS gf180mcu_fd_sc_mcu7t5v0__fillcap_4
XFILLER_1_2 VDD VDD VSS VSS gf180mcu_fd_sc_mcu7t5v0__fillcap_64
XPHY_EDGE_ROW_3_Left_74 VDD VSS gf180mcu_fd_sc_mcu7t5v0__endcap
XFILLER_59_42 VDD VDD VSS VSS gf180mcu_fd_sc_mcu7t5v0__fillcap_16
X_239_ net24 net38 Inst_W_IO_ConfigMem.Inst_frame0_bit29.Q VDD VDD VSS VSS gf180mcu_fd_sc_mcu7t5v0__latq_1
X_308_ FrameStrobe[18] net193 VDD VDD VSS VSS gf180mcu_fd_sc_mcu7t5v0__buf_2
XFILLER_4_209 VDD VDD VSS VSS gf180mcu_fd_sc_mcu7t5v0__fillcap_16
XFILLER_6_16 VDD VDD VSS VSS gf180mcu_fd_sc_mcu7t5v0__fillcap_16
XFILLER_61_10 VDD VDD VSS VSS gf180mcu_fd_sc_mcu7t5v0__fillcap_32
XFILLER_3_220 VDD VDD VSS VSS gf180mcu_fd_sc_mcu7t5v0__fillcap_4
XFILLER_19_121 VDD VDD VSS VSS gf180mcu_fd_sc_mcu7t5v0__fillcap_8
XFILLER_34_113 VDD VDD VSS VSS gf180mcu_fd_sc_mcu7t5v0__fill_1
XFILLER_34_146 VDD VDD VSS VSS gf180mcu_fd_sc_mcu7t5v0__fill_1
XPHY_EDGE_ROW_19_Right_19 VDD VSS gf180mcu_fd_sc_mcu7t5v0__endcap
XPHY_EDGE_ROW_28_Right_28 VDD VSS gf180mcu_fd_sc_mcu7t5v0__endcap
XPHY_EDGE_ROW_37_Right_37 VDD VSS gf180mcu_fd_sc_mcu7t5v0__endcap
XFILLER_22_127 VDD VDD VSS VSS gf180mcu_fd_sc_mcu7t5v0__fill_1
XFILLER_30_160 VDD VDD VSS VSS gf180mcu_fd_sc_mcu7t5v0__fill_2
XPHY_EDGE_ROW_46_Right_46 VDD VSS gf180mcu_fd_sc_mcu7t5v0__endcap
XFILLER_45_208 VDD VDD VSS VSS gf180mcu_fd_sc_mcu7t5v0__fill_2
XPHY_EDGE_ROW_55_Right_55 VDD VSS gf180mcu_fd_sc_mcu7t5v0__endcap
XPHY_EDGE_ROW_64_Right_64 VDD VSS gf180mcu_fd_sc_mcu7t5v0__endcap
XFILLER_67_42 VDD VDD VSS VSS gf180mcu_fd_sc_mcu7t5v0__fillcap_16
XTAP_TAPCELL_ROW_14_188 VDD VSS gf180mcu_fd_sc_mcu7t5v0__filltie
XTAP_TAPCELL_ROW_37_258 VDD VSS gf180mcu_fd_sc_mcu7t5v0__filltie
XFILLER_12_48 VDD VDD VSS VSS gf180mcu_fd_sc_mcu7t5v0__fillcap_4
XFILLER_12_37 VDD VDD VSS VSS gf180mcu_fd_sc_mcu7t5v0__fill_2
XFILLER_12_26 VDD VDD VSS VSS gf180mcu_fd_sc_mcu7t5v0__fillcap_8
XTAP_TAPCELL_ROW_68_350 VDD VSS gf180mcu_fd_sc_mcu7t5v0__filltie
X_341_ Inst_W_IO_switch_matrix.E6BEG10 net125 VDD VDD VSS VSS gf180mcu_fd_sc_mcu7t5v0__buf_2
X_272_ net8 net157 VDD VDD VSS VSS gf180mcu_fd_sc_mcu7t5v0__buf_2
XFILLER_53_66 VDD VDD VSS VSS gf180mcu_fd_sc_mcu7t5v0__fillcap_4
XTAP_TAPCELL_ROW_19_203 VDD VSS gf180mcu_fd_sc_mcu7t5v0__filltie
XTAP_TAPCELL_ROW_42_272 VDD VSS gf180mcu_fd_sc_mcu7t5v0__filltie
XTAP_TAPCELL_ROW_65_342 VDD VSS gf180mcu_fd_sc_mcu7t5v0__filltie
XFILLER_48_77 VDD VDD VSS VSS gf180mcu_fd_sc_mcu7t5v0__fillcap_8
XFILLER_64_10 VDD VDD VSS VSS gf180mcu_fd_sc_mcu7t5v0__fillcap_16
X_255_ Inst_W_IO_switch_matrix.EE4BEG13 net140 VDD VDD VSS VSS gf180mcu_fd_sc_mcu7t5v0__buf_2
X_324_ Inst_W_IO_switch_matrix.E2BEGb1 net117 VDD VDD VSS VSS gf180mcu_fd_sc_mcu7t5v0__buf_2
XFILLER_13_80 VDD VDD VSS VSS gf180mcu_fd_sc_mcu7t5v0__fill_1
X_186_ net48 net32 Inst_W_IO_ConfigMem.Inst_frame1_bit8.Q VDD VDD VSS VSS gf180mcu_fd_sc_mcu7t5v0__latq_1
XTAP_TAPCELL_ROW_62_334 VDD VSS gf180mcu_fd_sc_mcu7t5v0__filltie
XFILLER_64_177 VDD VDD VSS VSS gf180mcu_fd_sc_mcu7t5v0__fillcap_16
XFILLER_20_225 VDD VDD VSS VSS gf180mcu_fd_sc_mcu7t5v0__fillcap_8
XFILLER_50_45 VDD VDD VSS VSS gf180mcu_fd_sc_mcu7t5v0__fillcap_4
XFILLER_59_10 VDD VDD VSS VSS gf180mcu_fd_sc_mcu7t5v0__fillcap_32
XFILLER_46_100 VDD VDD VSS VSS gf180mcu_fd_sc_mcu7t5v0__fillcap_4
XFILLER_46_177 VDD VDD VSS VSS gf180mcu_fd_sc_mcu7t5v0__fillcap_32
XFILLER_61_136 VDD VDD VSS VSS gf180mcu_fd_sc_mcu7t5v0__fillcap_4
X_238_ net23 net38 Inst_W_IO_ConfigMem.Inst_frame0_bit28.Q VDD VDD VSS VSS gf180mcu_fd_sc_mcu7t5v0__latq_1
X_169_ net18 net30 Inst_W_IO_ConfigMem.Inst_frame2_bit23.Q VDD VDD VSS VSS gf180mcu_fd_sc_mcu7t5v0__latq_1
X_307_ FrameStrobe[17] net192 VDD VDD VSS VSS gf180mcu_fd_sc_mcu7t5v0__buf_2
XFILLER_27_2 VDD VDD VSS VSS gf180mcu_fd_sc_mcu7t5v0__fill_1
XFILLER_1_72 VDD VDD VSS VSS gf180mcu_fd_sc_mcu7t5v0__fillcap_64
XFILLER_20_26 VDD VDD VSS VSS gf180mcu_fd_sc_mcu7t5v0__fill_1
XFILLER_28_177 VDD VDD VSS VSS gf180mcu_fd_sc_mcu7t5v0__fillcap_32
XFILLER_45_56 VDD VDD VSS VSS gf180mcu_fd_sc_mcu7t5v0__fillcap_4
XFILLER_61_66 VDD VDD VSS VSS gf180mcu_fd_sc_mcu7t5v0__fillcap_4
XFILLER_57_206 VDD VDD VSS VSS gf180mcu_fd_sc_mcu7t5v0__fillcap_4
XFILLER_31_69 VDD VDD VSS VSS gf180mcu_fd_sc_mcu7t5v0__fill_1
XFILLER_16_103 VDD VDD VSS VSS gf180mcu_fd_sc_mcu7t5v0__fill_2
XFILLER_39_206 VDD VDD VSS VSS gf180mcu_fd_sc_mcu7t5v0__fillcap_4
XFILLER_54_209 VDD VDD VSS VSS gf180mcu_fd_sc_mcu7t5v0__fillcap_4
XTAP_TAPCELL_ROW_17_197 VDD VSS gf180mcu_fd_sc_mcu7t5v0__filltie
XFILLER_26_14 VDD VDD VSS VSS gf180mcu_fd_sc_mcu7t5v0__fill_1
XFILLER_13_139 VDD VDD VSS VSS gf180mcu_fd_sc_mcu7t5v0__fill_1
XFILLER_13_117 VDD VDD VSS VSS gf180mcu_fd_sc_mcu7t5v0__fill_1
XFILLER_42_57 VDD VDD VSS VSS gf180mcu_fd_sc_mcu7t5v0__fill_2
XFILLER_42_79 VDD VDD VSS VSS gf180mcu_fd_sc_mcu7t5v0__fillcap_16
XFILLER_67_10 VDD VDD VSS VSS gf180mcu_fd_sc_mcu7t5v0__fillcap_32
XFILLER_36_209 VDD VDD VSS VSS gf180mcu_fd_sc_mcu7t5v0__fillcap_16
XTAP_TAPCELL_ROW_14_189 VDD VSS gf180mcu_fd_sc_mcu7t5v0__filltie
XFILLER_12_161 VDD VDD VSS VSS gf180mcu_fd_sc_mcu7t5v0__fillcap_8
XFILLER_27_209 VDD VDD VSS VSS gf180mcu_fd_sc_mcu7t5v0__fill_1
XFILLER_35_220 VDD VDD VSS VSS gf180mcu_fd_sc_mcu7t5v0__fillcap_4
XTAP_TAPCELL_ROW_37_259 VDD VSS gf180mcu_fd_sc_mcu7t5v0__filltie
XTAP_TAPCELL_ROW_45_281 VDD VSS gf180mcu_fd_sc_mcu7t5v0__filltie
XTAP_TAPCELL_ROW_68_351 VDD VSS gf180mcu_fd_sc_mcu7t5v0__filltie
XFILLER_18_209 VDD VDD VSS VSS gf180mcu_fd_sc_mcu7t5v0__fillcap_16
XFILLER_41_212 VDD VDD VSS VSS gf180mcu_fd_sc_mcu7t5v0__fill_1
X_340_ Inst_W_IO_switch_matrix.E6BEG9 net135 VDD VDD VSS VSS gf180mcu_fd_sc_mcu7t5v0__buf_2
X_271_ net7 net156 VDD VDD VSS VSS gf180mcu_fd_sc_mcu7t5v0__buf_2
XTAP_TAPCELL_ROW_19_204 VDD VSS gf180mcu_fd_sc_mcu7t5v0__filltie
XFILLER_17_220 VDD VDD VSS VSS gf180mcu_fd_sc_mcu7t5v0__fillcap_4
XTAP_TAPCELL_ROW_42_273 VDD VSS gf180mcu_fd_sc_mcu7t5v0__filltie
XFILLER_67_142 VDD VDD VSS VSS gf180mcu_fd_sc_mcu7t5v0__fillcap_16
XTAP_TAPCELL_ROW_65_343 VDD VSS gf180mcu_fd_sc_mcu7t5v0__filltie
XFILLER_23_26 VDD VDD VSS VSS gf180mcu_fd_sc_mcu7t5v0__fill_2
XFILLER_23_48 VDD VDD VSS VSS gf180mcu_fd_sc_mcu7t5v0__fill_2
XFILLER_23_212 VDD VDD VSS VSS gf180mcu_fd_sc_mcu7t5v0__fillcap_8
X_323_ Inst_W_IO_switch_matrix.E2BEGb0 net116 VDD VDD VSS VSS gf180mcu_fd_sc_mcu7t5v0__buf_2
X_185_ net47 net32 Inst_W_IO_ConfigMem.Inst_frame1_bit7.Q VDD VDD VSS VSS gf180mcu_fd_sc_mcu7t5v0__latq_1
X_254_ Inst_W_IO_switch_matrix.EE4BEG12 net139 VDD VDD VSS VSS gf180mcu_fd_sc_mcu7t5v0__buf_2
XFILLER_64_101 VDD VDD VSS VSS gf180mcu_fd_sc_mcu7t5v0__fillcap_4
XFILLER_70_104 VDD VDD VSS VSS gf180mcu_fd_sc_mcu7t5v0__fill_2
XFILLER_18_37 VDD VDD VSS VSS gf180mcu_fd_sc_mcu7t5v0__fillcap_4
XFILLER_34_14 VDD VDD VSS VSS gf180mcu_fd_sc_mcu7t5v0__fill_1
XTAP_TAPCELL_ROW_21_210 VDD VSS gf180mcu_fd_sc_mcu7t5v0__filltie
XFILLER_34_69 VDD VDD VSS VSS gf180mcu_fd_sc_mcu7t5v0__fillcap_4
XFILLER_59_66 VDD VDD VSS VSS gf180mcu_fd_sc_mcu7t5v0__fillcap_4
XFILLER_46_123 VDD VDD VSS VSS gf180mcu_fd_sc_mcu7t5v0__fill_2
X_306_ FrameStrobe[16] net191 VDD VDD VSS VSS gf180mcu_fd_sc_mcu7t5v0__buf_2
X_237_ net22 net37 Inst_W_IO_ConfigMem.Inst_frame0_bit27.Q VDD VDD VSS VSS gf180mcu_fd_sc_mcu7t5v0__latq_1
XFILLER_24_91 VDD VDD VSS VSS gf180mcu_fd_sc_mcu7t5v0__fillcap_4
X_168_ net17 net30 Inst_W_IO_ConfigMem.Inst_frame2_bit22.Q VDD VDD VSS VSS gf180mcu_fd_sc_mcu7t5v0__latq_1
X_099_ net56 net84 net98 net72 Inst_W_IO_ConfigMem.Inst_frame2_bit24.Q Inst_W_IO_ConfigMem.Inst_frame2_bit25.Q
+ Inst_W_IO_switch_matrix.E2BEGb7 VDD VDD VSS VSS gf180mcu_fd_sc_mcu7t5v0__mux4_1
XFILLER_28_167 VDD VDD VSS VSS gf180mcu_fd_sc_mcu7t5v0__fillcap_8
XFILLER_43_137 VDD VDD VSS VSS gf180mcu_fd_sc_mcu7t5v0__fill_2
XFILLER_45_46 VDD VDD VSS VSS gf180mcu_fd_sc_mcu7t5v0__fill_2
XPHY_EDGE_ROW_69_Left_140 VDD VSS gf180mcu_fd_sc_mcu7t5v0__endcap
XFILLER_25_148 VDD VDD VSS VSS gf180mcu_fd_sc_mcu7t5v0__fill_1
XFILLER_33_170 VDD VDD VSS VSS gf180mcu_fd_sc_mcu7t5v0__fillcap_32
XFILLER_40_107 VDD VDD VSS VSS gf180mcu_fd_sc_mcu7t5v0__fill_1
XPHY_EDGE_ROW_1_Right_1 VDD VSS gf180mcu_fd_sc_mcu7t5v0__endcap
XFILLER_56_34 VDD VDD VSS VSS gf180mcu_fd_sc_mcu7t5v0__fill_1
XFILLER_22_107 VDD VDD VSS VSS gf180mcu_fd_sc_mcu7t5v0__fillcap_4
XTAP_TAPCELL_ROW_17_198 VDD VSS gf180mcu_fd_sc_mcu7t5v0__filltie
XFILLER_7_72 VDD VDD VSS VSS gf180mcu_fd_sc_mcu7t5v0__fillcap_64
XFILLER_26_37 VDD VDD VSS VSS gf180mcu_fd_sc_mcu7t5v0__fillcap_4
XTAP_TAPCELL_ROW_48_290 VDD VSS gf180mcu_fd_sc_mcu7t5v0__filltie
XFILLER_67_66 VDD VDD VSS VSS gf180mcu_fd_sc_mcu7t5v0__fillcap_4
XFILLER_12_173 VDD VDD VSS VSS gf180mcu_fd_sc_mcu7t5v0__fill_2
XFILLER_8_177 VDD VDD VSS VSS gf180mcu_fd_sc_mcu7t5v0__fillcap_32
XTAP_TAPCELL_ROW_45_282 VDD VSS gf180mcu_fd_sc_mcu7t5v0__filltie
XFILLER_12_39 VDD VDD VSS VSS gf180mcu_fd_sc_mcu7t5v0__fill_1
XTAP_TAPCELL_ROW_68_352 VDD VSS gf180mcu_fd_sc_mcu7t5v0__filltie
XFILLER_37_36 VDD VDD VSS VSS gf180mcu_fd_sc_mcu7t5v0__fill_2
X_270_ net6 net155 VDD VDD VSS VSS gf180mcu_fd_sc_mcu7t5v0__buf_2
XFILLER_5_136 VDD VDD VSS VSS gf180mcu_fd_sc_mcu7t5v0__fillcap_4
XTAP_TAPCELL_ROW_19_205 VDD VSS gf180mcu_fd_sc_mcu7t5v0__filltie
XTAP_TAPCELL_ROW_42_274 VDD VSS gf180mcu_fd_sc_mcu7t5v0__filltie