* NGSPICE file created from S_WARMBOOT.ext - technology: gf180mcuD

* Black-box entry subcircuit for gf180mcu_fd_sc_mcu7t5v0__filltie abstract view
.subckt gf180mcu_fd_sc_mcu7t5v0__filltie VDD VSS
.ends

* Black-box entry subcircuit for gf180mcu_fd_sc_mcu7t5v0__antenna abstract view
.subckt gf180mcu_fd_sc_mcu7t5v0__antenna I VDD VNW VPW VSS
.ends

* Black-box entry subcircuit for gf180mcu_fd_sc_mcu7t5v0__fill_1 abstract view
.subckt gf180mcu_fd_sc_mcu7t5v0__fill_1 VDD VNW VPW VSS
.ends

* Black-box entry subcircuit for gf180mcu_fd_sc_mcu7t5v0__fillcap_4 abstract view
.subckt gf180mcu_fd_sc_mcu7t5v0__fillcap_4 VDD VNW VPW VSS
.ends

* Black-box entry subcircuit for gf180mcu_fd_sc_mcu7t5v0__fill_2 abstract view
.subckt gf180mcu_fd_sc_mcu7t5v0__fill_2 VDD VNW VPW VSS
.ends

* Black-box entry subcircuit for gf180mcu_fd_sc_mcu7t5v0__fillcap_64 abstract view
.subckt gf180mcu_fd_sc_mcu7t5v0__fillcap_64 VDD VNW VPW VSS
.ends

* Black-box entry subcircuit for gf180mcu_fd_sc_mcu7t5v0__aoi221_2 abstract view
.subckt gf180mcu_fd_sc_mcu7t5v0__aoi221_2 A1 A2 B1 B2 C ZN VDD VNW VPW VSS
.ends

* Black-box entry subcircuit for gf180mcu_fd_sc_mcu7t5v0__buf_2 abstract view
.subckt gf180mcu_fd_sc_mcu7t5v0__buf_2 I Z VDD VNW VPW VSS
.ends

* Black-box entry subcircuit for gf180mcu_fd_sc_mcu7t5v0__inv_1 abstract view
.subckt gf180mcu_fd_sc_mcu7t5v0__inv_1 I ZN VDD VNW VPW VSS
.ends

* Black-box entry subcircuit for gf180mcu_fd_sc_mcu7t5v0__buf_4 abstract view
.subckt gf180mcu_fd_sc_mcu7t5v0__buf_4 I Z VDD VNW VPW VSS
.ends

* Black-box entry subcircuit for gf180mcu_fd_sc_mcu7t5v0__fillcap_32 abstract view
.subckt gf180mcu_fd_sc_mcu7t5v0__fillcap_32 VDD VNW VPW VSS
.ends

* Black-box entry subcircuit for gf180mcu_fd_sc_mcu7t5v0__endcap abstract view
.subckt gf180mcu_fd_sc_mcu7t5v0__endcap VDD VSS
.ends

* Black-box entry subcircuit for gf180mcu_fd_sc_mcu7t5v0__aoi21_1 abstract view
.subckt gf180mcu_fd_sc_mcu7t5v0__aoi21_1 A1 A2 B ZN VDD VNW VPW VSS
.ends

* Black-box entry subcircuit for gf180mcu_fd_sc_mcu7t5v0__latq_1 abstract view
.subckt gf180mcu_fd_sc_mcu7t5v0__latq_1 D E Q VDD VNW VPW VSS
.ends

* Black-box entry subcircuit for gf180mcu_fd_sc_mcu7t5v0__fillcap_8 abstract view
.subckt gf180mcu_fd_sc_mcu7t5v0__fillcap_8 VDD VNW VPW VSS
.ends

* Black-box entry subcircuit for gf180mcu_fd_sc_mcu7t5v0__nand2_1 abstract view
.subckt gf180mcu_fd_sc_mcu7t5v0__nand2_1 A1 A2 ZN VDD VNW VPW VSS
.ends

* Black-box entry subcircuit for gf180mcu_fd_sc_mcu7t5v0__fillcap_16 abstract view
.subckt gf180mcu_fd_sc_mcu7t5v0__fillcap_16 VDD VNW VPW VSS
.ends

* Black-box entry subcircuit for gf180mcu_fd_sc_mcu7t5v0__buf_1 abstract view
.subckt gf180mcu_fd_sc_mcu7t5v0__buf_1 I Z VDD VNW VPW VSS
.ends

* Black-box entry subcircuit for gf180mcu_fd_sc_mcu7t5v0__tiel abstract view
.subckt gf180mcu_fd_sc_mcu7t5v0__tiel ZN VDD VNW VPW VSS
.ends

* Black-box entry subcircuit for gf180mcu_fd_sc_mcu7t5v0__mux2_2 abstract view
.subckt gf180mcu_fd_sc_mcu7t5v0__mux2_2 I0 I1 S Z VDD VNW VPW VSS
.ends

* Black-box entry subcircuit for gf180mcu_fd_sc_mcu7t5v0__nor2_1 abstract view
.subckt gf180mcu_fd_sc_mcu7t5v0__nor2_1 A1 A2 ZN VDD VNW VPW VSS
.ends

* Black-box entry subcircuit for gf180mcu_fd_sc_mcu7t5v0__mux4_1 abstract view
.subckt gf180mcu_fd_sc_mcu7t5v0__mux4_1 I0 I1 I2 I3 S0 S1 Z VDD VNW VPW VSS
.ends

.subckt S_WARMBOOT BOOT_top CONFIGURED_top Co FrameData[0] FrameData[10] FrameData[11]
+ FrameData[12] FrameData[13] FrameData[14] FrameData[15] FrameData[16] FrameData[17]
+ FrameData[18] FrameData[19] FrameData[1] FrameData[20] FrameData[21] FrameData[22]
+ FrameData[23] FrameData[24] FrameData[25] FrameData[26] FrameData[27] FrameData[28]
+ FrameData[29] FrameData[2] FrameData[30] FrameData[31] FrameData[3] FrameData[4]
+ FrameData[5] FrameData[6] FrameData[7] FrameData[8] FrameData[9] FrameData_O[0]
+ FrameData_O[10] FrameData_O[11] FrameData_O[12] FrameData_O[13] FrameData_O[14]
+ FrameData_O[15] FrameData_O[16] FrameData_O[17] FrameData_O[18] FrameData_O[19]
+ FrameData_O[1] FrameData_O[20] FrameData_O[21] FrameData_O[22] FrameData_O[23] FrameData_O[24]
+ FrameData_O[25] FrameData_O[26] FrameData_O[27] FrameData_O[28] FrameData_O[29]
+ FrameData_O[2] FrameData_O[30] FrameData_O[31] FrameData_O[3] FrameData_O[4] FrameData_O[5]
+ FrameData_O[6] FrameData_O[7] FrameData_O[8] FrameData_O[9] FrameStrobe[0] FrameStrobe[10]
+ FrameStrobe[11] FrameStrobe[12] FrameStrobe[13] FrameStrobe[14] FrameStrobe[15]
+ FrameStrobe[16] FrameStrobe[17] FrameStrobe[18] FrameStrobe[19] FrameStrobe[1] FrameStrobe[2]
+ FrameStrobe[3] FrameStrobe[4] FrameStrobe[5] FrameStrobe[6] FrameStrobe[7] FrameStrobe[8]
+ FrameStrobe[9] FrameStrobe_O[0] FrameStrobe_O[10] FrameStrobe_O[11] FrameStrobe_O[12]
+ FrameStrobe_O[13] FrameStrobe_O[14] FrameStrobe_O[15] FrameStrobe_O[16] FrameStrobe_O[17]
+ FrameStrobe_O[18] FrameStrobe_O[19] FrameStrobe_O[1] FrameStrobe_O[2] FrameStrobe_O[3]
+ FrameStrobe_O[4] FrameStrobe_O[5] FrameStrobe_O[6] FrameStrobe_O[7] FrameStrobe_O[8]
+ FrameStrobe_O[9] N1BEG[0] N1BEG[1] N1BEG[2] N1BEG[3] N2BEG[0] N2BEG[1] N2BEG[2]
+ N2BEG[3] N2BEG[4] N2BEG[5] N2BEG[6] N2BEG[7] N2BEGb[0] N2BEGb[1] N2BEGb[2] N2BEGb[3]
+ N2BEGb[4] N2BEGb[5] N2BEGb[6] N2BEGb[7] N4BEG[0] N4BEG[10] N4BEG[11] N4BEG[12] N4BEG[13]
+ N4BEG[14] N4BEG[15] N4BEG[1] N4BEG[2] N4BEG[3] N4BEG[4] N4BEG[5] N4BEG[6] N4BEG[7]
+ N4BEG[8] N4BEG[9] NN4BEG[0] NN4BEG[10] NN4BEG[11] NN4BEG[12] NN4BEG[13] NN4BEG[14]
+ NN4BEG[15] NN4BEG[1] NN4BEG[2] NN4BEG[3] NN4BEG[4] NN4BEG[5] NN4BEG[6] NN4BEG[7]
+ NN4BEG[8] NN4BEG[9] RESET_top S1END[0] S1END[1] S1END[2] S1END[3] S2END[0] S2END[1]
+ S2END[2] S2END[3] S2END[4] S2END[5] S2END[6] S2END[7] S2MID[0] S2MID[1] S2MID[2]
+ S2MID[3] S2MID[4] S2MID[5] S2MID[6] S2MID[7] S4END[0] S4END[10] S4END[11] S4END[12]
+ S4END[13] S4END[14] S4END[15] S4END[1] S4END[2] S4END[3] S4END[4] S4END[5] S4END[6]
+ S4END[7] S4END[8] S4END[9] SLOT_top0 SLOT_top1 SLOT_top2 SLOT_top3 SS4END[0] SS4END[10]
+ SS4END[11] SS4END[12] SS4END[13] SS4END[14] SS4END[15] SS4END[1] SS4END[2] SS4END[3]
+ SS4END[4] SS4END[5] SS4END[6] SS4END[7] SS4END[8] SS4END[9] UserCLK UserCLKo VDD
+ VSS
XTAP_TAPCELL_ROW_9_104 VDD VSS gf180mcu_fd_sc_mcu7t5v0__filltie
XANTENNA__164__I FrameStrobe[17] VDD VDD VSS VSS gf180mcu_fd_sc_mcu7t5v0__antenna
XFILLER_13_199 VDD VDD VSS VSS gf180mcu_fd_sc_mcu7t5v0__fill_1
XFILLER_5_332 VDD VDD VSS VSS gf180mcu_fd_sc_mcu7t5v0__fillcap_4
XTAP_TAPCELL_ROW_8_99 VDD VSS gf180mcu_fd_sc_mcu7t5v0__filltie
XFILLER_2_346 VDD VDD VSS VSS gf180mcu_fd_sc_mcu7t5v0__fill_2
XANTENNA__159__I FrameStrobe[12] VDD VDD VSS VSS gf180mcu_fd_sc_mcu7t5v0__antenna
XFILLER_6_107 VDD VDD VSS VSS gf180mcu_fd_sc_mcu7t5v0__fillcap_64
XTAP_TAPCELL_ROW_11_120 VDD VSS gf180mcu_fd_sc_mcu7t5v0__filltie
X_062_ _021_ _023_ _026_ _027_ _011_ net1 VDD VDD VSS VSS gf180mcu_fd_sc_mcu7t5v0__aoi221_2
XFILLER_7_438 VDD VDD VSS VSS gf180mcu_fd_sc_mcu7t5v0__fillcap_4
X_131_ FrameData[16] net11 VDD VDD VSS VSS gf180mcu_fd_sc_mcu7t5v0__buf_2
X_200_ S4END[2] net80 VDD VDD VSS VSS gf180mcu_fd_sc_mcu7t5v0__buf_2
XFILLER_12_209 VDD VDD VSS VSS gf180mcu_fd_sc_mcu7t5v0__fill_1
X_045_ CONFIGURED_top _011_ VDD VDD VSS VSS gf180mcu_fd_sc_mcu7t5v0__inv_1
XFILLER_11_253 VDD VDD VSS VSS gf180mcu_fd_sc_mcu7t5v0__fillcap_4
XANTENNA__172__I S2MID[6] VDD VDD VSS VSS gf180mcu_fd_sc_mcu7t5v0__antenna
XTAP_TAPCELL_ROW_5_78 VDD VSS gf180mcu_fd_sc_mcu7t5v0__filltie
XFILLER_3_496 VDD VDD VSS VSS gf180mcu_fd_sc_mcu7t5v0__fill_2
XFILLER_3_282 VDD VDD VSS VSS gf180mcu_fd_sc_mcu7t5v0__fill_1
XFILLER_6_34 VDD VDD VSS VSS gf180mcu_fd_sc_mcu7t5v0__fill_1
XFILLER_6_45 VDD VDD VSS VSS gf180mcu_fd_sc_mcu7t5v0__fillcap_4
XFILLER_6_89 VDD VDD VSS VSS gf180mcu_fd_sc_mcu7t5v0__fillcap_4
XFILLER_13_348 VDD VDD VSS VSS gf180mcu_fd_sc_mcu7t5v0__fill_2
Xoutput53 net55 FrameStrobe_O[9] VDD VDD VSS VSS gf180mcu_fd_sc_mcu7t5v0__buf_4
Xoutput97 net99 NN4BEG[1] VDD VDD VSS VSS gf180mcu_fd_sc_mcu7t5v0__buf_4
Xoutput20 net22 FrameData_O[26] VDD VDD VSS VSS gf180mcu_fd_sc_mcu7t5v0__buf_4
Xoutput86 net88 N4BEG[6] VDD VDD VSS VSS gf180mcu_fd_sc_mcu7t5v0__buf_4
Xoutput75 net77 N4BEG[10] VDD VDD VSS VSS gf180mcu_fd_sc_mcu7t5v0__buf_4
Xoutput64 net66 N2BEG[6] VDD VDD VSS VSS gf180mcu_fd_sc_mcu7t5v0__buf_4
Xoutput7 net9 FrameData_O[14] VDD VDD VSS VSS gf180mcu_fd_sc_mcu7t5v0__buf_4
Xoutput42 net44 FrameStrobe_O[17] VDD VDD VSS VSS gf180mcu_fd_sc_mcu7t5v0__buf_4
XANTENNA__102__D FrameData[20] VDD VDD VSS VSS gf180mcu_fd_sc_mcu7t5v0__antenna
XFILLER_0_274 VDD VDD VSS VSS gf180mcu_fd_sc_mcu7t5v0__fillcap_32
XTAP_TAPCELL_ROW_2_57 VDD VSS gf180mcu_fd_sc_mcu7t5v0__filltie
Xoutput31 net33 FrameData_O[7] VDD VDD VSS VSS gf180mcu_fd_sc_mcu7t5v0__buf_4
XFILLER_10_329 VDD VDD VSS VSS gf180mcu_fd_sc_mcu7t5v0__fill_2
XTAP_TAPCELL_ROW_9_105 VDD VSS gf180mcu_fd_sc_mcu7t5v0__filltie
XANTENNA__180__I S2END[6] VDD VDD VSS VSS gf180mcu_fd_sc_mcu7t5v0__antenna
XTAP_TAPCELL_ROW_14_140 VDD VSS gf180mcu_fd_sc_mcu7t5v0__filltie
XFILLER_2_358 VDD VDD VSS VSS gf180mcu_fd_sc_mcu7t5v0__fillcap_4
XTAP_TAPCELL_ROW_11_121 VDD VSS gf180mcu_fd_sc_mcu7t5v0__filltie
XANTENNA__175__I S2MID[3] VDD VDD VSS VSS gf180mcu_fd_sc_mcu7t5v0__antenna
XPHY_EDGE_ROW_12_Right_12 VDD VSS gf180mcu_fd_sc_mcu7t5v0__endcap
X_130_ FrameData[15] net10 VDD VDD VSS VSS gf180mcu_fd_sc_mcu7t5v0__buf_2
X_061_ _009_ _024_ _010_ _027_ VDD VDD VSS VSS gf180mcu_fd_sc_mcu7t5v0__aoi21_1
XFILLER_9_56 VDD VDD VSS VSS gf180mcu_fd_sc_mcu7t5v0__fillcap_4
XANTENNA__110__D FrameData[28] VDD VDD VSS VSS gf180mcu_fd_sc_mcu7t5v0__antenna
XFILLER_0_36 VDD VDD VSS VSS gf180mcu_fd_sc_mcu7t5v0__fillcap_4
XFILLER_2_177 VDD VDD VSS VSS gf180mcu_fd_sc_mcu7t5v0__fillcap_4
XFILLER_3_2 VDD VDD VSS VSS gf180mcu_fd_sc_mcu7t5v0__fillcap_64
X_044_ Inst_S_WARMBOOT_ConfigMem.Inst_frame0_bit31.Q _010_ VDD VDD VSS VSS gf180mcu_fd_sc_mcu7t5v0__inv_1
X_113_ FrameData[31] net6 Inst_S_WARMBOOT_ConfigMem.Inst_frame0_bit31.Q VDD VDD VSS
+ VSS gf180mcu_fd_sc_mcu7t5v0__latq_1
XTAP_TAPCELL_ROW_5_79 VDD VSS gf180mcu_fd_sc_mcu7t5v0__filltie
XANTENNA__105__D FrameData[23] VDD VDD VSS VSS gf180mcu_fd_sc_mcu7t5v0__antenna
XFILLER_0_434 VDD VDD VSS VSS gf180mcu_fd_sc_mcu7t5v0__fill_2
XFILLER_0_478 VDD VDD VSS VSS gf180mcu_fd_sc_mcu7t5v0__fillcap_4
XANTENNA__183__I S2END[3] VDD VDD VSS VSS gf180mcu_fd_sc_mcu7t5v0__antenna
XPHY_EDGE_ROW_6_Right_6 VDD VSS gf180mcu_fd_sc_mcu7t5v0__endcap
Xoutput43 net45 FrameStrobe_O[18] VDD VDD VSS VSS gf180mcu_fd_sc_mcu7t5v0__buf_4
Xoutput65 net67 N2BEG[7] VDD VDD VSS VSS gf180mcu_fd_sc_mcu7t5v0__buf_4
Xoutput87 net89 N4BEG[7] VDD VDD VSS VSS gf180mcu_fd_sc_mcu7t5v0__buf_4
Xoutput98 net100 NN4BEG[2] VDD VDD VSS VSS gf180mcu_fd_sc_mcu7t5v0__buf_4
Xoutput76 net78 N4BEG[11] VDD VDD VSS VSS gf180mcu_fd_sc_mcu7t5v0__buf_4
Xoutput54 net56 N1BEG[0] VDD VDD VSS VSS gf180mcu_fd_sc_mcu7t5v0__buf_4
Xoutput10 net12 FrameData_O[17] VDD VDD VSS VSS gf180mcu_fd_sc_mcu7t5v0__buf_4
Xoutput21 net23 FrameData_O[27] VDD VDD VSS VSS gf180mcu_fd_sc_mcu7t5v0__buf_4
Xoutput8 net10 FrameData_O[15] VDD VDD VSS VSS gf180mcu_fd_sc_mcu7t5v0__buf_4
XTAP_TAPCELL_ROW_2_58 VDD VSS gf180mcu_fd_sc_mcu7t5v0__filltie
Xoutput32 net34 FrameData_O[8] VDD VDD VSS VSS gf180mcu_fd_sc_mcu7t5v0__buf_4
XANTENNA__178__I S2MID[0] VDD VDD VSS VSS gf180mcu_fd_sc_mcu7t5v0__antenna
XTAP_TAPCELL_ROW_9_106 VDD VSS gf180mcu_fd_sc_mcu7t5v0__filltie
XFILLER_9_139 VDD VDD VSS VSS gf180mcu_fd_sc_mcu7t5v0__fill_1
XTAP_TAPCELL_ROW_14_141 VDD VSS gf180mcu_fd_sc_mcu7t5v0__filltie
XANTENNA__113__D FrameData[31] VDD VDD VSS VSS gf180mcu_fd_sc_mcu7t5v0__antenna
XFILLER_12_45 VDD VDD VSS VSS gf180mcu_fd_sc_mcu7t5v0__fill_2
XANTENNA__108__D FrameData[26] VDD VDD VSS VSS gf180mcu_fd_sc_mcu7t5v0__antenna
XTAP_TAPCELL_ROW_11_122 VDD VSS gf180mcu_fd_sc_mcu7t5v0__filltie
XANTENNA__191__I S4END[11] VDD VDD VSS VSS gf180mcu_fd_sc_mcu7t5v0__antenna
XFILLER_9_492 VDD VDD VSS VSS gf180mcu_fd_sc_mcu7t5v0__fillcap_4
XFILLER_14_263 VDD VDD VSS VSS gf180mcu_fd_sc_mcu7t5v0__fillcap_8
XFILLER_14_241 VDD VDD VSS VSS gf180mcu_fd_sc_mcu7t5v0__fillcap_4
X_060_ Inst_S_WARMBOOT_ConfigMem.Inst_frame0_bit30.Q _025_ _026_ VDD VDD VSS VSS gf180mcu_fd_sc_mcu7t5v0__nand2_1
XFILLER_7_418 VDD VDD VSS VSS gf180mcu_fd_sc_mcu7t5v0__fill_2
XFILLER_2_101 VDD VDD VSS VSS gf180mcu_fd_sc_mcu7t5v0__fillcap_4
XANTENNA__186__I S2END[0] VDD VDD VSS VSS gf180mcu_fd_sc_mcu7t5v0__antenna
X_189_ S4END[13] net84 VDD VDD VSS VSS gf180mcu_fd_sc_mcu7t5v0__buf_2
X_112_ FrameData[30] net6 Inst_S_WARMBOOT_ConfigMem.Inst_frame0_bit30.Q VDD VDD VSS
+ VSS gf180mcu_fd_sc_mcu7t5v0__latq_1
XFILLER_11_277 VDD VDD VSS VSS gf180mcu_fd_sc_mcu7t5v0__fill_2
XFILLER_11_222 VDD VDD VSS VSS gf180mcu_fd_sc_mcu7t5v0__fillcap_4
X_043_ Inst_S_WARMBOOT_ConfigMem.Inst_frame0_bit30.Q _009_ VDD VDD VSS VSS gf180mcu_fd_sc_mcu7t5v0__inv_1
XFILLER_3_498 VDD VDD VSS VSS gf180mcu_fd_sc_mcu7t5v0__fill_1
XFILLER_3_240 VDD VDD VSS VSS gf180mcu_fd_sc_mcu7t5v0__fillcap_8
XANTENNA__070__I0 S4END[2] VDD VDD VSS VSS gf180mcu_fd_sc_mcu7t5v0__antenna
Xoutput88 net90 N4BEG[8] VDD VDD VSS VSS gf180mcu_fd_sc_mcu7t5v0__buf_4
Xoutput77 net79 N4BEG[12] VDD VDD VSS VSS gf180mcu_fd_sc_mcu7t5v0__buf_4
Xoutput99 net101 NN4BEG[3] VDD VDD VSS VSS gf180mcu_fd_sc_mcu7t5v0__buf_4
Xoutput66 net68 N2BEGb[0] VDD VDD VSS VSS gf180mcu_fd_sc_mcu7t5v0__buf_4
Xoutput11 net13 FrameData_O[18] VDD VDD VSS VSS gf180mcu_fd_sc_mcu7t5v0__buf_4
Xoutput55 net57 N1BEG[1] VDD VDD VSS VSS gf180mcu_fd_sc_mcu7t5v0__buf_4
Xoutput22 net24 FrameData_O[28] VDD VDD VSS VSS gf180mcu_fd_sc_mcu7t5v0__buf_4
Xoutput9 net11 FrameData_O[16] VDD VDD VSS VSS gf180mcu_fd_sc_mcu7t5v0__buf_4
Xoutput44 net46 FrameStrobe_O[19] VDD VDD VSS VSS gf180mcu_fd_sc_mcu7t5v0__buf_4
XTAP_TAPCELL_ROW_2_59 VDD VSS gf180mcu_fd_sc_mcu7t5v0__filltie
Xoutput33 net35 FrameData_O[9] VDD VDD VSS VSS gf180mcu_fd_sc_mcu7t5v0__buf_4
XANTENNA__194__I S4END[8] VDD VDD VSS VSS gf180mcu_fd_sc_mcu7t5v0__antenna
XFILLER_12_383 VDD VDD VSS VSS gf180mcu_fd_sc_mcu7t5v0__fill_2
XFILLER_11_2 VDD VDD VSS VSS gf180mcu_fd_sc_mcu7t5v0__fillcap_4
XFILLER_8_387 VDD VDD VSS VSS gf180mcu_fd_sc_mcu7t5v0__fillcap_32
XFILLER_8_365 VDD VDD VSS VSS gf180mcu_fd_sc_mcu7t5v0__fillcap_4
XFILLER_10_309 VDD VDD VSS VSS gf180mcu_fd_sc_mcu7t5v0__fillcap_4
XTAP_TAPCELL_ROW_9_107 VDD VSS gf180mcu_fd_sc_mcu7t5v0__filltie
XTAP_TAPCELL_ROW_14_142 VDD VSS gf180mcu_fd_sc_mcu7t5v0__filltie
XANTENNA__189__I S4END[13] VDD VDD VSS VSS gf180mcu_fd_sc_mcu7t5v0__antenna
XFILLER_2_338 VDD VDD VSS VSS gf180mcu_fd_sc_mcu7t5v0__fillcap_8
XFILLER_5_176 VDD VDD VSS VSS gf180mcu_fd_sc_mcu7t5v0__fillcap_4
XFILLER_11_415 VDD VDD VSS VSS gf180mcu_fd_sc_mcu7t5v0__fill_2
XFILLER_11_404 VDD VDD VSS VSS gf180mcu_fd_sc_mcu7t5v0__fill_1
XFILLER_6_452 VDD VDD VSS VSS gf180mcu_fd_sc_mcu7t5v0__fill_2
XFILLER_1_190 VDD VDD VSS VSS gf180mcu_fd_sc_mcu7t5v0__fillcap_8
X_188_ S4END[14] net83 VDD VDD VSS VSS gf180mcu_fd_sc_mcu7t5v0__buf_2
XFILLER_11_201 VDD VDD VSS VSS gf180mcu_fd_sc_mcu7t5v0__fill_1
XFILLER_11_245 VDD VDD VSS VSS gf180mcu_fd_sc_mcu7t5v0__fillcap_8
XPHY_EDGE_ROW_12_Left_28 VDD VSS gf180mcu_fd_sc_mcu7t5v0__endcap
XFILLER_7_205 VDD VDD VSS VSS gf180mcu_fd_sc_mcu7t5v0__fill_2
XANTENNA__197__I S4END[5] VDD VDD VSS VSS gf180mcu_fd_sc_mcu7t5v0__antenna
X_111_ FrameData[29] net6 Inst_S_WARMBOOT_ConfigMem.Inst_frame0_bit29.Q VDD VDD VSS
+ VSS gf180mcu_fd_sc_mcu7t5v0__latq_1
XFILLER_3_422 VDD VDD VSS VSS gf180mcu_fd_sc_mcu7t5v0__fillcap_16
XFILLER_3_263 VDD VDD VSS VSS gf180mcu_fd_sc_mcu7t5v0__fillcap_16
XFILLER_6_37 VDD VDD VSS VSS gf180mcu_fd_sc_mcu7t5v0__fillcap_8
XFILLER_15_392 VDD VDD VSS VSS gf180mcu_fd_sc_mcu7t5v0__fill_2
XFILLER_3_285 VDD VDD VSS VSS gf180mcu_fd_sc_mcu7t5v0__fillcap_16
XANTENNA__070__I1 S4END[6] VDD VDD VSS VSS gf180mcu_fd_sc_mcu7t5v0__antenna
Xoutput34 net36 FrameStrobe_O[0] VDD VDD VSS VSS gf180mcu_fd_sc_mcu7t5v0__buf_4
Xoutput45 net47 FrameStrobe_O[1] VDD VDD VSS VSS gf180mcu_fd_sc_mcu7t5v0__buf_4
XFILLER_13_318 VDD VDD VSS VSS gf180mcu_fd_sc_mcu7t5v0__fillcap_16
Xoutput78 net80 N4BEG[13] VDD VDD VSS VSS gf180mcu_fd_sc_mcu7t5v0__buf_4
Xoutput23 net25 FrameData_O[29] VDD VDD VSS VSS gf180mcu_fd_sc_mcu7t5v0__buf_4
Xoutput89 net91 N4BEG[9] VDD VDD VSS VSS gf180mcu_fd_sc_mcu7t5v0__buf_4
Xoutput67 net69 N2BEGb[1] VDD VDD VSS VSS gf180mcu_fd_sc_mcu7t5v0__buf_4
Xoutput56 net58 N1BEG[2] VDD VDD VSS VSS gf180mcu_fd_sc_mcu7t5v0__buf_4
Xoutput12 net14 FrameData_O[19] VDD VDD VSS VSS gf180mcu_fd_sc_mcu7t5v0__buf_4
XPHY_EDGE_ROW_15_Left_31 VDD VSS gf180mcu_fd_sc_mcu7t5v0__endcap
XTAP_TAPCELL_ROW_9_108 VDD VSS gf180mcu_fd_sc_mcu7t5v0__filltie
XFILLER_7_80 VDD VDD VSS VSS gf180mcu_fd_sc_mcu7t5v0__fillcap_4
XTAP_TAPCELL_ROW_14_143 VDD VSS gf180mcu_fd_sc_mcu7t5v0__filltie
XFILLER_5_336 VDD VDD VSS VSS gf180mcu_fd_sc_mcu7t5v0__fill_2
XFILLER_10_107 VDD VDD VSS VSS gf180mcu_fd_sc_mcu7t5v0__fill_1
XFILLER_8_174 VDD VDD VSS VSS gf180mcu_fd_sc_mcu7t5v0__fill_1
XFILLER_12_47 VDD VDD VSS VSS gf180mcu_fd_sc_mcu7t5v0__fill_1
XPHY_EDGE_ROW_0_Left_16 VDD VSS gf180mcu_fd_sc_mcu7t5v0__endcap
XFILLER_2_317 VDD VDD VSS VSS gf180mcu_fd_sc_mcu7t5v0__fill_1
XFILLER_5_144 VDD VDD VSS VSS gf180mcu_fd_sc_mcu7t5v0__fillcap_32
XFILLER_9_48 VDD VDD VSS VSS gf180mcu_fd_sc_mcu7t5v0__fillcap_8
X_187_ S4END[15] net76 VDD VDD VSS VSS gf180mcu_fd_sc_mcu7t5v0__buf_2
XFILLER_11_279 VDD VDD VSS VSS gf180mcu_fd_sc_mcu7t5v0__fill_1
XFILLER_11_257 VDD VDD VSS VSS gf180mcu_fd_sc_mcu7t5v0__fill_2
XFILLER_1_2 VDD VDD VSS VSS gf180mcu_fd_sc_mcu7t5v0__fillcap_64
X_110_ FrameData[28] net6 Inst_S_WARMBOOT_ConfigMem.Inst_frame0_bit28.Q VDD VDD VSS
+ VSS gf180mcu_fd_sc_mcu7t5v0__latq_1
XFILLER_0_426 VDD VDD VSS VSS gf180mcu_fd_sc_mcu7t5v0__fillcap_8
XFILLER_6_49 VDD VDD VSS VSS gf180mcu_fd_sc_mcu7t5v0__fill_2
XTAP_TAPCELL_ROW_6_81 VDD VSS gf180mcu_fd_sc_mcu7t5v0__filltie
Xoutput46 net48 FrameStrobe_O[2] VDD VDD VSS VSS gf180mcu_fd_sc_mcu7t5v0__buf_4
XFILLER_15_36 VDD VDD VSS VSS gf180mcu_fd_sc_mcu7t5v0__fillcap_4
Xoutput35 net37 FrameStrobe_O[10] VDD VDD VSS VSS gf180mcu_fd_sc_mcu7t5v0__buf_4
Xoutput57 net59 N1BEG[3] VDD VDD VSS VSS gf180mcu_fd_sc_mcu7t5v0__buf_4
XFILLER_0_212 VDD VDD VSS VSS gf180mcu_fd_sc_mcu7t5v0__fillcap_4
Xoutput24 net26 FrameData_O[2] VDD VDD VSS VSS gf180mcu_fd_sc_mcu7t5v0__buf_4
Xoutput13 net15 FrameData_O[1] VDD VDD VSS VSS gf180mcu_fd_sc_mcu7t5v0__buf_4
Xoutput79 net81 N4BEG[14] VDD VDD VSS VSS gf180mcu_fd_sc_mcu7t5v0__buf_4
Xoutput68 net70 N2BEGb[2] VDD VDD VSS VSS gf180mcu_fd_sc_mcu7t5v0__buf_4
XFILLER_8_301 VDD VDD VSS VSS gf180mcu_fd_sc_mcu7t5v0__fillcap_4
XFILLER_8_131 VDD VDD VSS VSS gf180mcu_fd_sc_mcu7t5v0__fill_2
XTAP_TAPCELL_ROW_3_60 VDD VSS gf180mcu_fd_sc_mcu7t5v0__filltie
XFILLER_4_381 VDD VDD VSS VSS gf180mcu_fd_sc_mcu7t5v0__fillcap_4
XANTENNA_fanout6_I FrameStrobe[0] VDD VDD VSS VSS gf180mcu_fd_sc_mcu7t5v0__antenna
XFILLER_12_37 VDD VDD VSS VSS gf180mcu_fd_sc_mcu7t5v0__fillcap_8
XFILLER_4_71 VDD VDD VSS VSS gf180mcu_fd_sc_mcu7t5v0__fill_1
XFILLER_9_16 VDD VDD VSS VSS gf180mcu_fd_sc_mcu7t5v0__fillcap_32
XFILLER_6_454 VDD VDD VSS VSS gf180mcu_fd_sc_mcu7t5v0__fill_1
X_186_ S2END[0] net75 VDD VDD VSS VSS gf180mcu_fd_sc_mcu7t5v0__buf_2
XFILLER_11_269 VDD VDD VSS VSS gf180mcu_fd_sc_mcu7t5v0__fillcap_8
XFILLER_11_214 VDD VDD VSS VSS gf180mcu_fd_sc_mcu7t5v0__fillcap_8
XFILLER_7_207 VDD VDD VSS VSS gf180mcu_fd_sc_mcu7t5v0__fill_1
XFILLER_3_446 VDD VDD VSS VSS gf180mcu_fd_sc_mcu7t5v0__fillcap_4
XANTENNA__091__I0 S1END[0] VDD VDD VSS VSS gf180mcu_fd_sc_mcu7t5v0__antenna
X_169_ Inst_S_WARMBOOT_switch_matrix.N1BEG2 net58 VDD VDD VSS VSS gf180mcu_fd_sc_mcu7t5v0__buf_2
XFILLER_1_72 VDD VDD VSS VSS gf180mcu_fd_sc_mcu7t5v0__fillcap_16
XANTENNA__064__I0 SS4END[3] VDD VDD VSS VSS gf180mcu_fd_sc_mcu7t5v0__antenna
XFILLER_0_438 VDD VDD VSS VSS gf180mcu_fd_sc_mcu7t5v0__fillcap_4
XFILLER_15_372 VDD VDD VSS VSS gf180mcu_fd_sc_mcu7t5v0__fill_2
XTAP_TAPCELL_ROW_6_82 VDD VSS gf180mcu_fd_sc_mcu7t5v0__filltie
Xoutput69 net71 N2BEGb[3] VDD VDD VSS VSS gf180mcu_fd_sc_mcu7t5v0__buf_4
Xoutput36 net38 FrameStrobe_O[11] VDD VDD VSS VSS gf180mcu_fd_sc_mcu7t5v0__buf_4
Xoutput47 net49 FrameStrobe_O[3] VDD VDD VSS VSS gf180mcu_fd_sc_mcu7t5v0__buf_4
Xoutput58 net60 N2BEG[0] VDD VDD VSS VSS gf180mcu_fd_sc_mcu7t5v0__buf_4
Xoutput14 net16 FrameData_O[20] VDD VDD VSS VSS gf180mcu_fd_sc_mcu7t5v0__buf_4
Xoutput25 net27 FrameData_O[30] VDD VDD VSS VSS gf180mcu_fd_sc_mcu7t5v0__buf_4
XFILLER_12_353 VDD VDD VSS VSS gf180mcu_fd_sc_mcu7t5v0__fill_2
XFILLER_5_316 VDD VDD VSS VSS gf180mcu_fd_sc_mcu7t5v0__fillcap_16
XTAP_TAPCELL_ROW_3_61 VDD VSS gf180mcu_fd_sc_mcu7t5v0__filltie
XFILLER_1_352 VDD VDD VSS VSS gf180mcu_fd_sc_mcu7t5v0__fillcap_4
XFILLER_1_341 VDD VDD VSS VSS gf180mcu_fd_sc_mcu7t5v0__fillcap_8
XFILLER_1_330 VDD VDD VSS VSS gf180mcu_fd_sc_mcu7t5v0__fill_1
XFILLER_13_492 VDD VDD VSS VSS gf180mcu_fd_sc_mcu7t5v0__fillcap_4
XFILLER_9_496 VDD VDD VSS VSS gf180mcu_fd_sc_mcu7t5v0__fill_2
XFILLER_9_430 VDD VDD VSS VSS gf180mcu_fd_sc_mcu7t5v0__fill_1
XANTENNA__200__I S4END[2] VDD VDD VSS VSS gf180mcu_fd_sc_mcu7t5v0__antenna
XFILLER_4_94 VDD VDD VSS VSS gf180mcu_fd_sc_mcu7t5v0__fill_2
XFILLER_14_289 VDD VDD VSS VSS gf180mcu_fd_sc_mcu7t5v0__fillcap_16
X_185_ S2END[1] net74 VDD VDD VSS VSS gf180mcu_fd_sc_mcu7t5v0__buf_2
XFILLER_9_282 VDD VDD VSS VSS gf180mcu_fd_sc_mcu7t5v0__fillcap_8
XTAP_TAPCELL_ROW_0_40 VDD VSS gf180mcu_fd_sc_mcu7t5v0__filltie
XANTENNA__091__I1 RESET_top VDD VDD VSS VSS gf180mcu_fd_sc_mcu7t5v0__antenna
X_099_ FrameData[17] net5 Inst_S_WARMBOOT_ConfigMem.Inst_frame0_bit17.Q VDD VDD VSS
+ VSS gf180mcu_fd_sc_mcu7t5v0__latq_1
X_168_ Inst_S_WARMBOOT_switch_matrix.N1BEG1 net57 VDD VDD VSS VSS gf180mcu_fd_sc_mcu7t5v0__buf_2
XANTENNA__064__I1 SS4END[7] VDD VDD VSS VSS gf180mcu_fd_sc_mcu7t5v0__antenna
XTAP_TAPCELL_ROW_6_83 VDD VSS gf180mcu_fd_sc_mcu7t5v0__filltie
Xoutput48 net50 FrameStrobe_O[4] VDD VDD VSS VSS gf180mcu_fd_sc_mcu7t5v0__buf_4
Xoutput15 net17 FrameData_O[21] VDD VDD VSS VSS gf180mcu_fd_sc_mcu7t5v0__buf_4
Xoutput37 net39 FrameStrobe_O[12] VDD VDD VSS VSS gf180mcu_fd_sc_mcu7t5v0__buf_4
XFILLER_12_387 VDD VDD VSS VSS gf180mcu_fd_sc_mcu7t5v0__fillcap_16
Xoutput59 net61 N2BEG[1] VDD VDD VSS VSS gf180mcu_fd_sc_mcu7t5v0__buf_4
Xoutput26 net28 FrameData_O[31] VDD VDD VSS VSS gf180mcu_fd_sc_mcu7t5v0__buf_4
XPHY_EDGE_ROW_1_Right_1 VDD VSS gf180mcu_fd_sc_mcu7t5v0__endcap
XFILLER_11_6 VDD VDD VSS VSS gf180mcu_fd_sc_mcu7t5v0__fill_2
XFILLER_7_72 VDD VDD VSS VSS gf180mcu_fd_sc_mcu7t5v0__fillcap_8
XANTENNA__203__I SS4END[15] VDD VDD VSS VSS gf180mcu_fd_sc_mcu7t5v0__antenna
XTAP_TAPCELL_ROW_8_100 VDD VSS gf180mcu_fd_sc_mcu7t5v0__filltie
XFILLER_12_195 VDD VDD VSS VSS gf180mcu_fd_sc_mcu7t5v0__fillcap_8
XFILLER_8_177 VDD VDD VSS VSS gf180mcu_fd_sc_mcu7t5v0__fillcap_64
XFILLER_8_155 VDD VDD VSS VSS gf180mcu_fd_sc_mcu7t5v0__fill_1
XFILLER_8_111 VDD VDD VSS VSS gf180mcu_fd_sc_mcu7t5v0__fill_2
XTAP_TAPCELL_ROW_3_62 VDD VSS gf180mcu_fd_sc_mcu7t5v0__filltie
XTAP_TAPCELL_ROW_11_116 VDD VSS gf180mcu_fd_sc_mcu7t5v0__filltie
XFILLER_11_419 VDD VDD VSS VSS gf180mcu_fd_sc_mcu7t5v0__fill_1
X_184_ S2END[2] net73 VDD VDD VSS VSS gf180mcu_fd_sc_mcu7t5v0__buf_2
XFILLER_9_261 VDD VDD VSS VSS gf180mcu_fd_sc_mcu7t5v0__fillcap_8
XTAP_TAPCELL_ROW_0_41 VDD VSS gf180mcu_fd_sc_mcu7t5v0__filltie
XANTENNA__211__I SS4END[7] VDD VDD VSS VSS gf180mcu_fd_sc_mcu7t5v0__antenna
XANTENNA__121__I FrameData[6] VDD VDD VSS VSS gf180mcu_fd_sc_mcu7t5v0__antenna
X_167_ Inst_S_WARMBOOT_switch_matrix.N1BEG0 net56 VDD VDD VSS VSS gf180mcu_fd_sc_mcu7t5v0__buf_2
X_098_ FrameData[16] net5 Inst_S_WARMBOOT_ConfigMem.Inst_frame0_bit16.Q VDD VDD VSS
+ VSS gf180mcu_fd_sc_mcu7t5v0__latq_1
XFILLER_1_96 VDD VDD VSS VSS gf180mcu_fd_sc_mcu7t5v0__fill_1
XANTENNA__206__I SS4END[12] VDD VDD VSS VSS gf180mcu_fd_sc_mcu7t5v0__antenna
XANTENNA__116__I FrameData[1] VDD VDD VSS VSS gf180mcu_fd_sc_mcu7t5v0__antenna
XPHY_EDGE_ROW_7_Left_23 VDD VSS gf180mcu_fd_sc_mcu7t5v0__endcap
XFILLER_3_212 VDD VDD VSS VSS gf180mcu_fd_sc_mcu7t5v0__fillcap_16
XTAP_TAPCELL_ROW_6_84 VDD VSS gf180mcu_fd_sc_mcu7t5v0__filltie
X_219_ UserCLK net112 VDD VDD VSS VSS gf180mcu_fd_sc_mcu7t5v0__buf_1
Xoutput49 net51 FrameStrobe_O[5] VDD VDD VSS VSS gf180mcu_fd_sc_mcu7t5v0__buf_4
Xoutput16 net18 FrameData_O[22] VDD VDD VSS VSS gf180mcu_fd_sc_mcu7t5v0__buf_4
Xoutput38 net40 FrameStrobe_O[13] VDD VDD VSS VSS gf180mcu_fd_sc_mcu7t5v0__buf_4
XFILLER_0_237 VDD VDD VSS VSS gf180mcu_fd_sc_mcu7t5v0__fill_1
Xoutput27 net29 FrameData_O[3] VDD VDD VSS VSS gf180mcu_fd_sc_mcu7t5v0__buf_4
XPHY_EDGE_ROW_15_Right_15 VDD VSS gf180mcu_fd_sc_mcu7t5v0__endcap
XS_WARMBOOT_111 Co VDD VDD VSS VSS gf180mcu_fd_sc_mcu7t5v0__tiel
XFILLER_7_84 VDD VDD VSS VSS gf180mcu_fd_sc_mcu7t5v0__fill_2
XTAP_TAPCELL_ROW_8_101 VDD VSS gf180mcu_fd_sc_mcu7t5v0__filltie
XTAP_TAPCELL_ROW_3_63 VDD VSS gf180mcu_fd_sc_mcu7t5v0__filltie
XANTENNA__214__I SS4END[4] VDD VDD VSS VSS gf180mcu_fd_sc_mcu7t5v0__antenna
XFILLER_14_406 VDD VDD VSS VSS gf180mcu_fd_sc_mcu7t5v0__fill_1
XANTENNA__124__I FrameData[9] VDD VDD VSS VSS gf180mcu_fd_sc_mcu7t5v0__antenna
XTAP_TAPCELL_ROW_11_117 VDD VSS gf180mcu_fd_sc_mcu7t5v0__filltie
XFILLER_9_498 VDD VDD VSS VSS gf180mcu_fd_sc_mcu7t5v0__fill_1
XFILLER_4_96 VDD VDD VSS VSS gf180mcu_fd_sc_mcu7t5v0__fill_1
XANTENNA__209__I SS4END[9] VDD VDD VSS VSS gf180mcu_fd_sc_mcu7t5v0__antenna
XANTENNA__094__I0 S1END[3] VDD VDD VSS VSS gf180mcu_fd_sc_mcu7t5v0__antenna
XFILLER_2_107 VDD VDD VSS VSS gf180mcu_fd_sc_mcu7t5v0__fillcap_64
XFILLER_14_247 VDD VDD VSS VSS gf180mcu_fd_sc_mcu7t5v0__fillcap_16
XFILLER_13_83 VDD VDD VSS VSS gf180mcu_fd_sc_mcu7t5v0__fill_1
XFILLER_13_72 VDD VDD VSS VSS gf180mcu_fd_sc_mcu7t5v0__fill_1
X_183_ S2END[3] net72 VDD VDD VSS VSS gf180mcu_fd_sc_mcu7t5v0__buf_2
XANTENNA__119__I FrameData[4] VDD VDD VSS VSS gf180mcu_fd_sc_mcu7t5v0__antenna
XANTENNA__085__I0 SS4END[0] VDD VDD VSS VSS gf180mcu_fd_sc_mcu7t5v0__antenna
XFILLER_6_446 VDD VDD VSS VSS gf180mcu_fd_sc_mcu7t5v0__fillcap_4
XTAP_TAPCELL_ROW_0_42 VDD VSS gf180mcu_fd_sc_mcu7t5v0__filltie
XFILLER_9_240 VDD VDD VSS VSS gf180mcu_fd_sc_mcu7t5v0__fill_2
XFILLER_10_261 VDD VDD VSS VSS gf180mcu_fd_sc_mcu7t5v0__fillcap_4
XANTENNA__067__I0 S1END[3] VDD VDD VSS VSS gf180mcu_fd_sc_mcu7t5v0__antenna
XFILLER_3_416 VDD VDD VSS VSS gf180mcu_fd_sc_mcu7t5v0__fillcap_4
XFILLER_3_438 VDD VDD VSS VSS gf180mcu_fd_sc_mcu7t5v0__fillcap_8
XFILLER_6_210 VDD VDD VSS VSS gf180mcu_fd_sc_mcu7t5v0__fill_1
X_166_ FrameStrobe[19] net46 VDD VDD VSS VSS gf180mcu_fd_sc_mcu7t5v0__buf_2
XANTENNA__058__I0 S4END[3] VDD VDD VSS VSS gf180mcu_fd_sc_mcu7t5v0__antenna
XFILLER_6_298 VDD VDD VSS VSS gf180mcu_fd_sc_mcu7t5v0__fillcap_16
X_097_ FrameData[15] net5 Inst_S_WARMBOOT_ConfigMem.Inst_frame0_bit15.Q VDD VDD VSS
+ VSS gf180mcu_fd_sc_mcu7t5v0__latq_1
XFILLER_6_221 VDD VDD VSS VSS gf180mcu_fd_sc_mcu7t5v0__fill_1
XANTENNA__132__I FrameData[17] VDD VDD VSS VSS gf180mcu_fd_sc_mcu7t5v0__antenna
XFILLER_15_342 VDD VDD VSS VSS gf180mcu_fd_sc_mcu7t5v0__fillcap_16
X_218_ SS4END[0] net98 VDD VDD VSS VSS gf180mcu_fd_sc_mcu7t5v0__buf_2
XTAP_TAPCELL_ROW_6_85 VDD VSS gf180mcu_fd_sc_mcu7t5v0__filltie
X_149_ FrameStrobe[2] net48 VDD VDD VSS VSS gf180mcu_fd_sc_mcu7t5v0__buf_2
XFILLER_3_279 VDD VDD VSS VSS gf180mcu_fd_sc_mcu7t5v0__fill_1
Xoutput39 net41 FrameStrobe_O[14] VDD VDD VSS VSS gf180mcu_fd_sc_mcu7t5v0__buf_4
Xoutput17 net19 FrameData_O[23] VDD VDD VSS VSS gf180mcu_fd_sc_mcu7t5v0__buf_4
XANTENNA__217__I SS4END[1] VDD VDD VSS VSS gf180mcu_fd_sc_mcu7t5v0__antenna
XFILLER_0_216 VDD VDD VSS VSS gf180mcu_fd_sc_mcu7t5v0__fill_2
Xoutput28 net30 FrameData_O[4] VDD VDD VSS VSS gf180mcu_fd_sc_mcu7t5v0__buf_4
XFILLER_12_312 VDD VDD VSS VSS gf180mcu_fd_sc_mcu7t5v0__fill_2
XANTENNA__127__I FrameData[12] VDD VDD VSS VSS gf180mcu_fd_sc_mcu7t5v0__antenna
XFILLER_11_8 VDD VDD VSS VSS gf180mcu_fd_sc_mcu7t5v0__fill_1
XFILLER_8_349 VDD VDD VSS VSS gf180mcu_fd_sc_mcu7t5v0__fillcap_16
XFILLER_15_172 VDD VDD VSS VSS gf180mcu_fd_sc_mcu7t5v0__fillcap_4
XTAP_TAPCELL_ROW_14_137 VDD VSS gf180mcu_fd_sc_mcu7t5v0__filltie
XTAP_TAPCELL_ROW_3_64 VDD VSS gf180mcu_fd_sc_mcu7t5v0__filltie
XFILLER_4_341 VDD VDD VSS VSS gf180mcu_fd_sc_mcu7t5v0__fillcap_4
XTAP_TAPCELL_ROW_11_118 VDD VSS gf180mcu_fd_sc_mcu7t5v0__filltie
XFILLER_9_433 VDD VDD VSS VSS gf180mcu_fd_sc_mcu7t5v0__fill_2
XFILLER_9_422 VDD VDD VSS VSS gf180mcu_fd_sc_mcu7t5v0__fillcap_8
XANTENNA__140__I FrameData[25] VDD VDD VSS VSS gf180mcu_fd_sc_mcu7t5v0__antenna
XFILLER_4_171 VDD VDD VSS VSS gf180mcu_fd_sc_mcu7t5v0__fillcap_4
XFILLER_14_215 VDD VDD VSS VSS gf180mcu_fd_sc_mcu7t5v0__fill_2
XANTENNA__094__I1 RESET_top VDD VDD VSS VSS gf180mcu_fd_sc_mcu7t5v0__antenna
XTAP_TAPCELL_ROW_0_43 VDD VSS gf180mcu_fd_sc_mcu7t5v0__filltie
XFILLER_1_174 VDD VDD VSS VSS gf180mcu_fd_sc_mcu7t5v0__fillcap_16
XTAP_TAPCELL_ROW_0_32 VDD VSS gf180mcu_fd_sc_mcu7t5v0__filltie
X_182_ S2END[4] net71 VDD VDD VSS VSS gf180mcu_fd_sc_mcu7t5v0__buf_2
XANTENNA__135__I FrameData[20] VDD VDD VSS VSS gf180mcu_fd_sc_mcu7t5v0__antenna
XFILLER_13_292 VDD VDD VSS VSS gf180mcu_fd_sc_mcu7t5v0__fillcap_4
XANTENNA__045__I CONFIGURED_top VDD VDD VSS VSS gf180mcu_fd_sc_mcu7t5v0__antenna
XANTENNA__085__I1 SS4END[4] VDD VDD VSS VSS gf180mcu_fd_sc_mcu7t5v0__antenna
XANTENNA__067__I1 S2MID[3] VDD VDD VSS VSS gf180mcu_fd_sc_mcu7t5v0__antenna
X_165_ FrameStrobe[18] net45 VDD VDD VSS VSS gf180mcu_fd_sc_mcu7t5v0__buf_2
X_096_ FrameData[14] net5 Inst_S_WARMBOOT_ConfigMem.Inst_frame0_bit14.Q VDD VDD VSS
+ VSS gf180mcu_fd_sc_mcu7t5v0__latq_1
XANTENNA__058__I1 S4END[7] VDD VDD VSS VSS gf180mcu_fd_sc_mcu7t5v0__antenna
XANTENNA__097__D FrameData[15] VDD VDD VSS VSS gf180mcu_fd_sc_mcu7t5v0__antenna
XFILLER_15_376 VDD VDD VSS VSS gf180mcu_fd_sc_mcu7t5v0__fillcap_16
X_217_ SS4END[1] net97 VDD VDD VSS VSS gf180mcu_fd_sc_mcu7t5v0__buf_2
XTAP_TAPCELL_ROW_6_86 VDD VSS gf180mcu_fd_sc_mcu7t5v0__filltie
X_148_ FrameStrobe[1] net47 VDD VDD VSS VSS gf180mcu_fd_sc_mcu7t5v0__buf_2
Xoutput18 net20 FrameData_O[24] VDD VDD VSS VSS gf180mcu_fd_sc_mcu7t5v0__buf_4
XFILLER_0_206 VDD VDD VSS VSS gf180mcu_fd_sc_mcu7t5v0__fillcap_4
Xoutput29 net31 FrameData_O[5] VDD VDD VSS VSS gf180mcu_fd_sc_mcu7t5v0__buf_4
X_079_ Inst_S_WARMBOOT_ConfigMem.Inst_frame0_bit21.Q _041_ _042_ VDD VDD VSS VSS gf180mcu_fd_sc_mcu7t5v0__nand2_1