* NGSPICE file created from S_WARMBOOT.ext - technology: gf180mcuD

* Black-box entry subcircuit for gf180mcu_fd_sc_mcu7t5v0__filltie abstract view
.subckt gf180mcu_fd_sc_mcu7t5v0__filltie VDD VSS
.ends

* Black-box entry subcircuit for gf180mcu_fd_sc_mcu7t5v0__fill_2 abstract view
.subckt gf180mcu_fd_sc_mcu7t5v0__fill_2 VDD VNW VPW VSS
.ends

* Black-box entry subcircuit for gf180mcu_fd_sc_mcu7t5v0__fillcap_4 abstract view
.subckt gf180mcu_fd_sc_mcu7t5v0__fillcap_4 VDD VNW VPW VSS
.ends

* Black-box entry subcircuit for gf180mcu_fd_sc_mcu7t5v0__fillcap_64 abstract view
.subckt gf180mcu_fd_sc_mcu7t5v0__fillcap_64 VDD VNW VPW VSS
.ends

* Black-box entry subcircuit for gf180mcu_fd_sc_mcu7t5v0__aoi221_2 abstract view
.subckt gf180mcu_fd_sc_mcu7t5v0__aoi221_2 A1 A2 B1 B2 C ZN VDD VNW VPW VSS
.ends

* Black-box entry subcircuit for gf180mcu_fd_sc_mcu7t5v0__buf_2 abstract view
.subckt gf180mcu_fd_sc_mcu7t5v0__buf_2 I Z VDD VNW VPW VSS
.ends

* Black-box entry subcircuit for gf180mcu_fd_sc_mcu7t5v0__inv_1 abstract view
.subckt gf180mcu_fd_sc_mcu7t5v0__inv_1 I ZN VDD VNW VPW VSS
.ends

* Black-box entry subcircuit for gf180mcu_fd_sc_mcu7t5v0__fillcap_16 abstract view
.subckt gf180mcu_fd_sc_mcu7t5v0__fillcap_16 VDD VNW VPW VSS
.ends

* Black-box entry subcircuit for gf180mcu_fd_sc_mcu7t5v0__fill_1 abstract view
.subckt gf180mcu_fd_sc_mcu7t5v0__fill_1 VDD VNW VPW VSS
.ends

* Black-box entry subcircuit for gf180mcu_fd_sc_mcu7t5v0__buf_4 abstract view
.subckt gf180mcu_fd_sc_mcu7t5v0__buf_4 I Z VDD VNW VPW VSS
.ends

* Black-box entry subcircuit for gf180mcu_fd_sc_mcu7t5v0__fillcap_32 abstract view
.subckt gf180mcu_fd_sc_mcu7t5v0__fillcap_32 VDD VNW VPW VSS
.ends

* Black-box entry subcircuit for gf180mcu_fd_sc_mcu7t5v0__fillcap_8 abstract view
.subckt gf180mcu_fd_sc_mcu7t5v0__fillcap_8 VDD VNW VPW VSS
.ends

* Black-box entry subcircuit for gf180mcu_fd_sc_mcu7t5v0__endcap abstract view
.subckt gf180mcu_fd_sc_mcu7t5v0__endcap VDD VSS
.ends

* Black-box entry subcircuit for gf180mcu_fd_sc_mcu7t5v0__aoi21_1 abstract view
.subckt gf180mcu_fd_sc_mcu7t5v0__aoi21_1 A1 A2 B ZN VDD VNW VPW VSS
.ends

* Black-box entry subcircuit for gf180mcu_fd_sc_mcu7t5v0__latq_1 abstract view
.subckt gf180mcu_fd_sc_mcu7t5v0__latq_1 D E Q VDD VNW VPW VSS
.ends

* Black-box entry subcircuit for gf180mcu_fd_sc_mcu7t5v0__nand2_1 abstract view
.subckt gf180mcu_fd_sc_mcu7t5v0__nand2_1 A1 A2 ZN VDD VNW VPW VSS
.ends

* Black-box entry subcircuit for gf180mcu_fd_sc_mcu7t5v0__tiel abstract view
.subckt gf180mcu_fd_sc_mcu7t5v0__tiel ZN VDD VNW VPW VSS
.ends

* Black-box entry subcircuit for gf180mcu_fd_sc_mcu7t5v0__buf_1 abstract view
.subckt gf180mcu_fd_sc_mcu7t5v0__buf_1 I Z VDD VNW VPW VSS
.ends

* Black-box entry subcircuit for gf180mcu_fd_sc_mcu7t5v0__mux2_2 abstract view
.subckt gf180mcu_fd_sc_mcu7t5v0__mux2_2 I0 I1 S Z VDD VNW VPW VSS
.ends

* Black-box entry subcircuit for gf180mcu_fd_sc_mcu7t5v0__nor2_1 abstract view
.subckt gf180mcu_fd_sc_mcu7t5v0__nor2_1 A1 A2 ZN VDD VNW VPW VSS
.ends

* Black-box entry subcircuit for gf180mcu_fd_sc_mcu7t5v0__mux4_1 abstract view
.subckt gf180mcu_fd_sc_mcu7t5v0__mux4_1 I0 I1 I2 I3 S0 S1 Z VDD VNW VPW VSS
.ends

.subckt S_WARMBOOT BOOT_top CONFIGURED_top Co FrameData[0] FrameData[10] FrameData[11]
+ FrameData[12] FrameData[13] FrameData[14] FrameData[15] FrameData[16] FrameData[17]
+ FrameData[18] FrameData[19] FrameData[1] FrameData[20] FrameData[21] FrameData[22]
+ FrameData[23] FrameData[24] FrameData[25] FrameData[26] FrameData[27] FrameData[28]
+ FrameData[29] FrameData[2] FrameData[30] FrameData[31] FrameData[3] FrameData[4]
+ FrameData[5] FrameData[6] FrameData[7] FrameData[8] FrameData[9] FrameData_O[0]
+ FrameData_O[10] FrameData_O[11] FrameData_O[12] FrameData_O[13] FrameData_O[14]
+ FrameData_O[15] FrameData_O[16] FrameData_O[17] FrameData_O[18] FrameData_O[19]
+ FrameData_O[1] FrameData_O[20] FrameData_O[21] FrameData_O[22] FrameData_O[23] FrameData_O[24]
+ FrameData_O[25] FrameData_O[26] FrameData_O[27] FrameData_O[28] FrameData_O[29]
+ FrameData_O[2] FrameData_O[30] FrameData_O[31] FrameData_O[3] FrameData_O[4] FrameData_O[5]
+ FrameData_O[6] FrameData_O[7] FrameData_O[8] FrameData_O[9] FrameStrobe[0] FrameStrobe[10]
+ FrameStrobe[11] FrameStrobe[12] FrameStrobe[13] FrameStrobe[14] FrameStrobe[15]
+ FrameStrobe[16] FrameStrobe[17] FrameStrobe[18] FrameStrobe[19] FrameStrobe[1] FrameStrobe[2]
+ FrameStrobe[3] FrameStrobe[4] FrameStrobe[5] FrameStrobe[6] FrameStrobe[7] FrameStrobe[8]
+ FrameStrobe[9] FrameStrobe_O[0] FrameStrobe_O[10] FrameStrobe_O[11] FrameStrobe_O[12]
+ FrameStrobe_O[13] FrameStrobe_O[14] FrameStrobe_O[15] FrameStrobe_O[16] FrameStrobe_O[17]
+ FrameStrobe_O[18] FrameStrobe_O[19] FrameStrobe_O[1] FrameStrobe_O[2] FrameStrobe_O[3]
+ FrameStrobe_O[4] FrameStrobe_O[5] FrameStrobe_O[6] FrameStrobe_O[7] FrameStrobe_O[8]
+ FrameStrobe_O[9] N1BEG[0] N1BEG[1] N1BEG[2] N1BEG[3] N2BEG[0] N2BEG[1] N2BEG[2]
+ N2BEG[3] N2BEG[4] N2BEG[5] N2BEG[6] N2BEG[7] N2BEGb[0] N2BEGb[1] N2BEGb[2] N2BEGb[3]
+ N2BEGb[4] N2BEGb[5] N2BEGb[6] N2BEGb[7] N4BEG[0] N4BEG[10] N4BEG[11] N4BEG[12] N4BEG[13]
+ N4BEG[14] N4BEG[15] N4BEG[1] N4BEG[2] N4BEG[3] N4BEG[4] N4BEG[5] N4BEG[6] N4BEG[7]
+ N4BEG[8] N4BEG[9] NN4BEG[0] NN4BEG[10] NN4BEG[11] NN4BEG[12] NN4BEG[13] NN4BEG[14]
+ NN4BEG[15] NN4BEG[1] NN4BEG[2] NN4BEG[3] NN4BEG[4] NN4BEG[5] NN4BEG[6] NN4BEG[7]
+ NN4BEG[8] NN4BEG[9] RESET_top S1END[0] S1END[1] S1END[2] S1END[3] S2END[0] S2END[1]
+ S2END[2] S2END[3] S2END[4] S2END[5] S2END[6] S2END[7] S2MID[0] S2MID[1] S2MID[2]
+ S2MID[3] S2MID[4] S2MID[5] S2MID[6] S2MID[7] S4END[0] S4END[10] S4END[11] S4END[12]
+ S4END[13] S4END[14] S4END[15] S4END[1] S4END[2] S4END[3] S4END[4] S4END[5] S4END[6]
+ S4END[7] S4END[8] S4END[9] SLOT_top0 SLOT_top1 SLOT_top2 SLOT_top3 SS4END[0] SS4END[10]
+ SS4END[11] SS4END[12] SS4END[13] SS4END[14] SS4END[15] SS4END[1] SS4END[2] SS4END[3]
+ SS4END[4] SS4END[5] SS4END[6] SS4END[7] SS4END[8] SS4END[9] UserCLK UserCLKo VDD
+ VSS
XTAP_TAPCELL_ROW_9_104 VDD VSS gf180mcu_fd_sc_mcu7t5v0__filltie
XFILLER_13_199 VDD VDD VSS VSS gf180mcu_fd_sc_mcu7t5v0__fill_2
XFILLER_9_137 VDD VDD VSS VSS gf180mcu_fd_sc_mcu7t5v0__fill_2
XFILLER_9_104 VDD VDD VSS VSS gf180mcu_fd_sc_mcu7t5v0__fill_2
XFILLER_5_332 VDD VDD VSS VSS gf180mcu_fd_sc_mcu7t5v0__fillcap_4
XTAP_TAPCELL_ROW_8_99 VDD VSS gf180mcu_fd_sc_mcu7t5v0__filltie
XFILLER_2_346 VDD VDD VSS VSS gf180mcu_fd_sc_mcu7t5v0__fillcap_4
XFILLER_6_107 VDD VDD VSS VSS gf180mcu_fd_sc_mcu7t5v0__fillcap_64
XTAP_TAPCELL_ROW_11_120 VDD VSS gf180mcu_fd_sc_mcu7t5v0__filltie
X_062_ _021_ _023_ _026_ _027_ _011_ net56 VDD VDD VSS VSS gf180mcu_fd_sc_mcu7t5v0__aoi221_2
XFILLER_7_438 VDD VDD VSS VSS gf180mcu_fd_sc_mcu7t5v0__fillcap_4
X_131_ net7 net64 VDD VDD VSS VSS gf180mcu_fd_sc_mcu7t5v0__buf_2
X_200_ net42 net133 VDD VDD VSS VSS gf180mcu_fd_sc_mcu7t5v0__buf_2
X_045_ net1 _011_ VDD VDD VSS VSS gf180mcu_fd_sc_mcu7t5v0__inv_1
XFILLER_3_496 VDD VDD VSS VSS gf180mcu_fd_sc_mcu7t5v0__fill_2
XTAP_TAPCELL_ROW_5_78 VDD VSS gf180mcu_fd_sc_mcu7t5v0__filltie
XFILLER_0_444 VDD VDD VSS VSS gf180mcu_fd_sc_mcu7t5v0__fillcap_4
XFILLER_3_282 VDD VDD VSS VSS gf180mcu_fd_sc_mcu7t5v0__fillcap_16
XFILLER_6_34 VDD VDD VSS VSS gf180mcu_fd_sc_mcu7t5v0__fill_1
XFILLER_6_89 VDD VDD VSS VSS gf180mcu_fd_sc_mcu7t5v0__fillcap_4
XFILLER_13_348 VDD VDD VSS VSS gf180mcu_fd_sc_mcu7t5v0__fill_2
Xoutput64 net66 FrameData_O[18] VDD VDD VSS VSS gf180mcu_fd_sc_mcu7t5v0__buf_4
Xoutput75 net77 FrameData_O[28] VDD VDD VSS VSS gf180mcu_fd_sc_mcu7t5v0__buf_4
Xoutput97 net99 FrameStrobe_O[19] VDD VDD VSS VSS gf180mcu_fd_sc_mcu7t5v0__buf_4
XFILLER_0_274 VDD VDD VSS VSS gf180mcu_fd_sc_mcu7t5v0__fillcap_32
XTAP_TAPCELL_ROW_2_57 VDD VSS gf180mcu_fd_sc_mcu7t5v0__filltie
Xoutput86 net88 FrameData_O[9] VDD VDD VSS VSS gf180mcu_fd_sc_mcu7t5v0__buf_4
XTAP_TAPCELL_ROW_9_105 VDD VSS gf180mcu_fd_sc_mcu7t5v0__filltie
XTAP_TAPCELL_ROW_14_140 VDD VSS gf180mcu_fd_sc_mcu7t5v0__filltie
XFILLER_10_148 VDD VDD VSS VSS gf180mcu_fd_sc_mcu7t5v0__fillcap_4
XFILLER_2_358 VDD VDD VSS VSS gf180mcu_fd_sc_mcu7t5v0__fillcap_4
XTAP_TAPCELL_ROW_11_121 VDD VSS gf180mcu_fd_sc_mcu7t5v0__filltie
XFILLER_5_174 VDD VDD VSS VSS gf180mcu_fd_sc_mcu7t5v0__fillcap_8
XPHY_EDGE_ROW_12_Right_12 VDD VSS gf180mcu_fd_sc_mcu7t5v0__endcap
X_130_ net4 net63 VDD VDD VSS VSS gf180mcu_fd_sc_mcu7t5v0__buf_2
X_061_ _009_ _024_ _010_ _027_ VDD VDD VSS VSS gf180mcu_fd_sc_mcu7t5v0__aoi21_1
XFILLER_9_56 VDD VDD VSS VSS gf180mcu_fd_sc_mcu7t5v0__fillcap_4
XFILLER_0_36 VDD VDD VSS VSS gf180mcu_fd_sc_mcu7t5v0__fillcap_4
XFILLER_2_177 VDD VDD VSS VSS gf180mcu_fd_sc_mcu7t5v0__fillcap_8
XFILLER_3_2 VDD VDD VSS VSS gf180mcu_fd_sc_mcu7t5v0__fillcap_64
X_044_ Inst_S_WARMBOOT_ConfigMem.Inst_frame0_bit31.Q _010_ VDD VDD VSS VSS gf180mcu_fd_sc_mcu7t5v0__inv_1
X_113_ net22 net6 Inst_S_WARMBOOT_ConfigMem.Inst_frame0_bit31.Q VDD VDD VSS VSS gf180mcu_fd_sc_mcu7t5v0__latq_1
XTAP_TAPCELL_ROW_5_79 VDD VSS gf180mcu_fd_sc_mcu7t5v0__filltie
XFILLER_0_478 VDD VDD VSS VSS gf180mcu_fd_sc_mcu7t5v0__fillcap_4
XPHY_EDGE_ROW_6_Right_6 VDD VSS gf180mcu_fd_sc_mcu7t5v0__endcap
Xoutput87 net89 FrameStrobe_O[0] VDD VDD VSS VSS gf180mcu_fd_sc_mcu7t5v0__buf_4
Xoutput98 net100 FrameStrobe_O[1] VDD VDD VSS VSS gf180mcu_fd_sc_mcu7t5v0__buf_4
Xoutput76 net78 FrameData_O[29] VDD VDD VSS VSS gf180mcu_fd_sc_mcu7t5v0__buf_4
Xoutput65 net67 FrameData_O[19] VDD VDD VSS VSS gf180mcu_fd_sc_mcu7t5v0__buf_4
XFILLER_0_220 VDD VDD VSS VSS gf180mcu_fd_sc_mcu7t5v0__fill_1
Xoutput54 net56 BOOT_top VDD VDD VSS VSS gf180mcu_fd_sc_mcu7t5v0__buf_4
XTAP_TAPCELL_ROW_2_58 VDD VSS gf180mcu_fd_sc_mcu7t5v0__filltie
XTAP_TAPCELL_ROW_9_106 VDD VSS gf180mcu_fd_sc_mcu7t5v0__filltie
XFILLER_9_139 VDD VDD VSS VSS gf180mcu_fd_sc_mcu7t5v0__fill_1
XTAP_TAPCELL_ROW_14_141 VDD VSS gf180mcu_fd_sc_mcu7t5v0__filltie
XFILLER_12_45 VDD VDD VSS VSS gf180mcu_fd_sc_mcu7t5v0__fill_2
XFILLER_10_116 VDD VDD VSS VSS gf180mcu_fd_sc_mcu7t5v0__fillcap_32
XFILLER_14_411 VDD VDD VSS VSS gf180mcu_fd_sc_mcu7t5v0__fillcap_4
XTAP_TAPCELL_ROW_11_122 VDD VSS gf180mcu_fd_sc_mcu7t5v0__filltie
XFILLER_5_142 VDD VDD VSS VSS gf180mcu_fd_sc_mcu7t5v0__fillcap_32
XFILLER_9_492 VDD VDD VSS VSS gf180mcu_fd_sc_mcu7t5v0__fillcap_4
XFILLER_14_263 VDD VDD VSS VSS gf180mcu_fd_sc_mcu7t5v0__fill_2
XFILLER_14_241 VDD VDD VSS VSS gf180mcu_fd_sc_mcu7t5v0__fillcap_4
X_060_ Inst_S_WARMBOOT_ConfigMem.Inst_frame0_bit30.Q _025_ _026_ VDD VDD VSS VSS gf180mcu_fd_sc_mcu7t5v0__nand2_1
XFILLER_7_418 VDD VDD VSS VSS gf180mcu_fd_sc_mcu7t5v0__fill_2
XFILLER_0_15 VDD VDD VSS VSS gf180mcu_fd_sc_mcu7t5v0__fillcap_8
XFILLER_2_101 VDD VDD VSS VSS gf180mcu_fd_sc_mcu7t5v0__fillcap_4
X_189_ S4END[13] net137 VDD VDD VSS VSS gf180mcu_fd_sc_mcu7t5v0__buf_2
X_112_ net21 net6 Inst_S_WARMBOOT_ConfigMem.Inst_frame0_bit30.Q VDD VDD VSS VSS gf180mcu_fd_sc_mcu7t5v0__latq_1
XFILLER_11_277 VDD VDD VSS VSS gf180mcu_fd_sc_mcu7t5v0__fill_2
X_043_ Inst_S_WARMBOOT_ConfigMem.Inst_frame0_bit30.Q _009_ VDD VDD VSS VSS gf180mcu_fd_sc_mcu7t5v0__inv_1
XFILLER_3_498 VDD VDD VSS VSS gf180mcu_fd_sc_mcu7t5v0__fill_1
XFILLER_3_240 VDD VDD VSS VSS gf180mcu_fd_sc_mcu7t5v0__fillcap_8
Xoutput99 net101 FrameStrobe_O[2] VDD VDD VSS VSS gf180mcu_fd_sc_mcu7t5v0__buf_4
Xoutput88 net90 FrameStrobe_O[10] VDD VDD VSS VSS gf180mcu_fd_sc_mcu7t5v0__buf_4
Xoutput77 net79 FrameData_O[2] VDD VDD VSS VSS gf180mcu_fd_sc_mcu7t5v0__buf_4
XTAP_TAPCELL_ROW_2_59 VDD VSS gf180mcu_fd_sc_mcu7t5v0__filltie
Xoutput55 net57 FrameData_O[0] VDD VDD VSS VSS gf180mcu_fd_sc_mcu7t5v0__buf_4
Xoutput66 net68 FrameData_O[1] VDD VDD VSS VSS gf180mcu_fd_sc_mcu7t5v0__buf_4
XFILLER_12_383 VDD VDD VSS VSS gf180mcu_fd_sc_mcu7t5v0__fill_2
XFILLER_11_2 VDD VDD VSS VSS gf180mcu_fd_sc_mcu7t5v0__fillcap_4
XFILLER_8_387 VDD VDD VSS VSS gf180mcu_fd_sc_mcu7t5v0__fillcap_32
XFILLER_8_365 VDD VDD VSS VSS gf180mcu_fd_sc_mcu7t5v0__fillcap_8
XFILLER_8_310 VDD VDD VSS VSS gf180mcu_fd_sc_mcu7t5v0__fillcap_4
XFILLER_10_309 VDD VDD VSS VSS gf180mcu_fd_sc_mcu7t5v0__fillcap_4
XTAP_TAPCELL_ROW_9_107 VDD VSS gf180mcu_fd_sc_mcu7t5v0__filltie
XFILLER_9_129 VDD VDD VSS VSS gf180mcu_fd_sc_mcu7t5v0__fillcap_8
XTAP_TAPCELL_ROW_14_142 VDD VSS gf180mcu_fd_sc_mcu7t5v0__filltie
XFILLER_2_338 VDD VDD VSS VSS gf180mcu_fd_sc_mcu7t5v0__fillcap_8
XFILLER_11_415 VDD VDD VSS VSS gf180mcu_fd_sc_mcu7t5v0__fillcap_4
XFILLER_11_404 VDD VDD VSS VSS gf180mcu_fd_sc_mcu7t5v0__fill_2
XFILLER_1_190 VDD VDD VSS VSS gf180mcu_fd_sc_mcu7t5v0__fillcap_8
X_188_ S4END[14] net136 VDD VDD VSS VSS gf180mcu_fd_sc_mcu7t5v0__buf_2
XFILLER_11_212 VDD VDD VSS VSS gf180mcu_fd_sc_mcu7t5v0__fillcap_4
XFILLER_11_201 VDD VDD VSS VSS gf180mcu_fd_sc_mcu7t5v0__fill_1
XFILLER_9_290 VDD VDD VSS VSS gf180mcu_fd_sc_mcu7t5v0__fill_2
XFILLER_11_245 VDD VDD VSS VSS gf180mcu_fd_sc_mcu7t5v0__fillcap_16
XPHY_EDGE_ROW_12_Left_28 VDD VSS gf180mcu_fd_sc_mcu7t5v0__endcap
X_111_ net20 net6 Inst_S_WARMBOOT_ConfigMem.Inst_frame0_bit29.Q VDD VDD VSS VSS gf180mcu_fd_sc_mcu7t5v0__latq_1
XFILLER_3_422 VDD VDD VSS VSS gf180mcu_fd_sc_mcu7t5v0__fillcap_32
XFILLER_3_263 VDD VDD VSS VSS gf180mcu_fd_sc_mcu7t5v0__fillcap_16
XFILLER_6_37 VDD VDD VSS VSS gf180mcu_fd_sc_mcu7t5v0__fillcap_16
XFILLER_15_392 VDD VDD VSS VSS gf180mcu_fd_sc_mcu7t5v0__fill_2
Xoutput89 net91 FrameStrobe_O[11] VDD VDD VSS VSS gf180mcu_fd_sc_mcu7t5v0__buf_4
Xoutput67 net69 FrameData_O[20] VDD VDD VSS VSS gf180mcu_fd_sc_mcu7t5v0__buf_4
Xoutput78 net80 FrameData_O[30] VDD VDD VSS VSS gf180mcu_fd_sc_mcu7t5v0__buf_4
Xoutput56 net58 FrameData_O[10] VDD VDD VSS VSS gf180mcu_fd_sc_mcu7t5v0__buf_4
XPHY_EDGE_ROW_15_Left_31 VDD VSS gf180mcu_fd_sc_mcu7t5v0__endcap
XTAP_TAPCELL_ROW_9_108 VDD VSS gf180mcu_fd_sc_mcu7t5v0__filltie
XFILLER_7_80 VDD VDD VSS VSS gf180mcu_fd_sc_mcu7t5v0__fillcap_4
XTAP_TAPCELL_ROW_14_143 VDD VSS gf180mcu_fd_sc_mcu7t5v0__filltie
XFILLER_5_336 VDD VDD VSS VSS gf180mcu_fd_sc_mcu7t5v0__fill_2
XFILLER_10_107 VDD VDD VSS VSS gf180mcu_fd_sc_mcu7t5v0__fill_1
XFILLER_8_174 VDD VDD VSS VSS gf180mcu_fd_sc_mcu7t5v0__fill_1
XFILLER_12_47 VDD VDD VSS VSS gf180mcu_fd_sc_mcu7t5v0__fill_1
XPHY_EDGE_ROW_0_Left_16 VDD VSS gf180mcu_fd_sc_mcu7t5v0__endcap
XFILLER_2_317 VDD VDD VSS VSS gf180mcu_fd_sc_mcu7t5v0__fill_1
X_187_ S4END[15] net129 VDD VDD VSS VSS gf180mcu_fd_sc_mcu7t5v0__buf_2
XFILLER_11_279 VDD VDD VSS VSS gf180mcu_fd_sc_mcu7t5v0__fill_1
XFILLER_1_2 VDD VDD VSS VSS gf180mcu_fd_sc_mcu7t5v0__fillcap_64
X_110_ net19 net6 Inst_S_WARMBOOT_ConfigMem.Inst_frame0_bit28.Q VDD VDD VSS VSS gf180mcu_fd_sc_mcu7t5v0__latq_1
XTAP_TAPCELL_ROW_6_81 VDD VSS gf180mcu_fd_sc_mcu7t5v0__filltie
XFILLER_15_36 VDD VDD VSS VSS gf180mcu_fd_sc_mcu7t5v0__fillcap_4
Xoutput57 net59 FrameData_O[11] VDD VDD VSS VSS gf180mcu_fd_sc_mcu7t5v0__buf_4
Xoutput68 net70 FrameData_O[21] VDD VDD VSS VSS gf180mcu_fd_sc_mcu7t5v0__buf_4
Xoutput79 net81 FrameData_O[31] VDD VDD VSS VSS gf180mcu_fd_sc_mcu7t5v0__buf_4
XTAP_TAPCELL_ROW_3_60 VDD VSS gf180mcu_fd_sc_mcu7t5v0__filltie
XFILLER_4_381 VDD VDD VSS VSS gf180mcu_fd_sc_mcu7t5v0__fillcap_4
XFILLER_11_406 VDD VDD VSS VSS gf180mcu_fd_sc_mcu7t5v0__fill_1
XFILLER_6_454 VDD VDD VSS VSS gf180mcu_fd_sc_mcu7t5v0__fill_1
X_186_ net28 net128 VDD VDD VSS VSS gf180mcu_fd_sc_mcu7t5v0__buf_2
XFILLER_11_269 VDD VDD VSS VSS gf180mcu_fd_sc_mcu7t5v0__fillcap_8
XFILLER_11_225 VDD VDD VSS VSS gf180mcu_fd_sc_mcu7t5v0__fillcap_4
X_169_ Inst_S_WARMBOOT_switch_matrix.N1BEG2 net111 VDD VDD VSS VSS gf180mcu_fd_sc_mcu7t5v0__buf_2
XFILLER_1_72 VDD VDD VSS VSS gf180mcu_fd_sc_mcu7t5v0__fillcap_16
XFILLER_15_350 VDD VDD VSS VSS gf180mcu_fd_sc_mcu7t5v0__fillcap_4
XFILLER_3_298 VDD VDD VSS VSS gf180mcu_fd_sc_mcu7t5v0__fillcap_8
XTAP_TAPCELL_ROW_6_82 VDD VSS gf180mcu_fd_sc_mcu7t5v0__filltie
Xoutput69 net71 FrameData_O[22] VDD VDD VSS VSS gf180mcu_fd_sc_mcu7t5v0__buf_4
XFILLER_12_375 VDD VDD VSS VSS gf180mcu_fd_sc_mcu7t5v0__fillcap_8
XFILLER_12_353 VDD VDD VSS VSS gf180mcu_fd_sc_mcu7t5v0__fill_2
Xoutput58 net60 FrameData_O[12] VDD VDD VSS VSS gf180mcu_fd_sc_mcu7t5v0__buf_4
XS_WARMBOOT_164 Co VDD VDD VSS VSS gf180mcu_fd_sc_mcu7t5v0__tiel
XFILLER_5_316 VDD VDD VSS VSS gf180mcu_fd_sc_mcu7t5v0__fillcap_16
XFILLER_8_121 VDD VDD VSS VSS gf180mcu_fd_sc_mcu7t5v0__fillcap_8
XTAP_TAPCELL_ROW_3_61 VDD VSS gf180mcu_fd_sc_mcu7t5v0__filltie
XFILLER_1_352 VDD VDD VSS VSS gf180mcu_fd_sc_mcu7t5v0__fillcap_8
XFILLER_1_330 VDD VDD VSS VSS gf180mcu_fd_sc_mcu7t5v0__fill_1
XFILLER_13_492 VDD VDD VSS VSS gf180mcu_fd_sc_mcu7t5v0__fillcap_4
XFILLER_9_496 VDD VDD VSS VSS gf180mcu_fd_sc_mcu7t5v0__fill_2
XFILLER_9_430 VDD VDD VSS VSS gf180mcu_fd_sc_mcu7t5v0__fillcap_4
XFILLER_4_94 VDD VDD VSS VSS gf180mcu_fd_sc_mcu7t5v0__fill_2
X_185_ net29 net127 VDD VDD VSS VSS gf180mcu_fd_sc_mcu7t5v0__buf_2
XFILLER_9_282 VDD VDD VSS VSS gf180mcu_fd_sc_mcu7t5v0__fillcap_8
XTAP_TAPCELL_ROW_0_40 VDD VSS gf180mcu_fd_sc_mcu7t5v0__filltie
X_099_ net8 net5 Inst_S_WARMBOOT_ConfigMem.Inst_frame0_bit17.Q VDD VDD VSS VSS gf180mcu_fd_sc_mcu7t5v0__latq_1
X_168_ Inst_S_WARMBOOT_switch_matrix.N1BEG1 net110 VDD VDD VSS VSS gf180mcu_fd_sc_mcu7t5v0__buf_2
XFILLER_6_18 VDD VDD VSS VSS gf180mcu_fd_sc_mcu7t5v0__fillcap_16
XFILLER_15_373 VDD VDD VSS VSS gf180mcu_fd_sc_mcu7t5v0__fill_1
XTAP_TAPCELL_ROW_6_83 VDD VSS gf180mcu_fd_sc_mcu7t5v0__filltie
XFILLER_12_387 VDD VDD VSS VSS gf180mcu_fd_sc_mcu7t5v0__fillcap_16
XFILLER_8_314 VDD VDD VSS VSS gf180mcu_fd_sc_mcu7t5v0__fill_1
Xoutput59 net61 FrameData_O[13] VDD VDD VSS VSS gf180mcu_fd_sc_mcu7t5v0__buf_4
XFILLER_0_214 VDD VDD VSS VSS gf180mcu_fd_sc_mcu7t5v0__fillcap_4
XPHY_EDGE_ROW_1_Right_1 VDD VSS gf180mcu_fd_sc_mcu7t5v0__endcap
XFILLER_11_6 VDD VDD VSS VSS gf180mcu_fd_sc_mcu7t5v0__fill_2
XFILLER_7_72 VDD VDD VSS VSS gf180mcu_fd_sc_mcu7t5v0__fillcap_8
XTAP_TAPCELL_ROW_8_100 VDD VSS gf180mcu_fd_sc_mcu7t5v0__filltie
XFILLER_12_195 VDD VDD VSS VSS gf180mcu_fd_sc_mcu7t5v0__fillcap_4
XFILLER_8_177 VDD VDD VSS VSS gf180mcu_fd_sc_mcu7t5v0__fillcap_64
XFILLER_8_155 VDD VDD VSS VSS gf180mcu_fd_sc_mcu7t5v0__fill_1
XFILLER_8_133 VDD VDD VSS VSS gf180mcu_fd_sc_mcu7t5v0__fill_2
XFILLER_8_111 VDD VDD VSS VSS gf180mcu_fd_sc_mcu7t5v0__fill_2
XTAP_TAPCELL_ROW_3_62 VDD VSS gf180mcu_fd_sc_mcu7t5v0__filltie
XTAP_TAPCELL_ROW_11_116 VDD VSS gf180mcu_fd_sc_mcu7t5v0__filltie
XFILLER_5_136 VDD VDD VSS VSS gf180mcu_fd_sc_mcu7t5v0__fillcap_4
XFILLER_4_73 VDD VDD VSS VSS gf180mcu_fd_sc_mcu7t5v0__fill_1
XFILLER_11_419 VDD VDD VSS VSS gf180mcu_fd_sc_mcu7t5v0__fill_1
XFILLER_13_290 VDD VDD VSS VSS gf180mcu_fd_sc_mcu7t5v0__fillcap_8
X_184_ net30 net126 VDD VDD VSS VSS gf180mcu_fd_sc_mcu7t5v0__buf_2
XTAP_TAPCELL_ROW_0_41 VDD VSS gf180mcu_fd_sc_mcu7t5v0__filltie
XFILLER_11_216 VDD VDD VSS VSS gf180mcu_fd_sc_mcu7t5v0__fill_1
XFILLER_7_209 VDD VDD VSS VSS gf180mcu_fd_sc_mcu7t5v0__fill_1
XFILLER_10_271 VDD VDD VSS VSS gf180mcu_fd_sc_mcu7t5v0__fill_1
X_167_ Inst_S_WARMBOOT_switch_matrix.N1BEG0 net109 VDD VDD VSS VSS gf180mcu_fd_sc_mcu7t5v0__buf_2
X_098_ net7 net5 Inst_S_WARMBOOT_ConfigMem.Inst_frame0_bit16.Q VDD VDD VSS VSS gf180mcu_fd_sc_mcu7t5v0__latq_1
XFILLER_1_96 VDD VDD VSS VSS gf180mcu_fd_sc_mcu7t5v0__fill_1
XPHY_EDGE_ROW_7_Left_23 VDD VSS gf180mcu_fd_sc_mcu7t5v0__endcap
XFILLER_3_212 VDD VDD VSS VSS gf180mcu_fd_sc_mcu7t5v0__fillcap_16
X_219_ UserCLK net165 VDD VDD VSS VSS gf180mcu_fd_sc_mcu7t5v0__buf_1
XTAP_TAPCELL_ROW_6_84 VDD VSS gf180mcu_fd_sc_mcu7t5v0__filltie
XFILLER_0_237 VDD VDD VSS VSS gf180mcu_fd_sc_mcu7t5v0__fill_1
XPHY_EDGE_ROW_15_Right_15 VDD VSS gf180mcu_fd_sc_mcu7t5v0__endcap
XFILLER_7_84 VDD VDD VSS VSS gf180mcu_fd_sc_mcu7t5v0__fill_2
XFILLER_12_163 VDD VDD VSS VSS gf180mcu_fd_sc_mcu7t5v0__fillcap_4
XTAP_TAPCELL_ROW_8_101 VDD VSS gf180mcu_fd_sc_mcu7t5v0__filltie
XTAP_TAPCELL_ROW_3_63 VDD VSS gf180mcu_fd_sc_mcu7t5v0__filltie
XTAP_TAPCELL_ROW_11_117 VDD VSS gf180mcu_fd_sc_mcu7t5v0__filltie
XFILLER_9_498 VDD VDD VSS VSS gf180mcu_fd_sc_mcu7t5v0__fill_1
XFILLER_4_96 VDD VDD VSS VSS gf180mcu_fd_sc_mcu7t5v0__fill_1
XFILLER_4_181 VDD VDD VSS VSS gf180mcu_fd_sc_mcu7t5v0__fill_1
XFILLER_2_107 VDD VDD VSS VSS gf180mcu_fd_sc_mcu7t5v0__fillcap_64
XFILLER_14_247 VDD VDD VSS VSS gf180mcu_fd_sc_mcu7t5v0__fillcap_16
XFILLER_13_83 VDD VDD VSS VSS gf180mcu_fd_sc_mcu7t5v0__fill_1
XFILLER_13_72 VDD VDD VSS VSS gf180mcu_fd_sc_mcu7t5v0__fill_2
X_183_ net31 net125 VDD VDD VSS VSS gf180mcu_fd_sc_mcu7t5v0__buf_2
XTAP_TAPCELL_ROW_0_42 VDD VSS gf180mcu_fd_sc_mcu7t5v0__filltie
XFILLER_9_240 VDD VDD VSS VSS gf180mcu_fd_sc_mcu7t5v0__fill_2
XFILLER_3_416 VDD VDD VSS VSS gf180mcu_fd_sc_mcu7t5v0__fillcap_4
XFILLER_6_210 VDD VDD VSS VSS gf180mcu_fd_sc_mcu7t5v0__fill_2
X_166_ FrameStrobe[19] net99 VDD VDD VSS VSS gf180mcu_fd_sc_mcu7t5v0__buf_2
XFILLER_6_221 VDD VDD VSS VSS gf180mcu_fd_sc_mcu7t5v0__fill_1
X_097_ net4 net5 Inst_S_WARMBOOT_ConfigMem.Inst_frame0_bit15.Q VDD VDD VSS VSS gf180mcu_fd_sc_mcu7t5v0__latq_1
XFILLER_6_298 VDD VDD VSS VSS gf180mcu_fd_sc_mcu7t5v0__fillcap_16
XFILLER_15_342 VDD VDD VSS VSS gf180mcu_fd_sc_mcu7t5v0__fillcap_8
X_218_ net48 net151 VDD VDD VSS VSS gf180mcu_fd_sc_mcu7t5v0__buf_2
X_149_ FrameStrobe[2] net101 VDD VDD VSS VSS gf180mcu_fd_sc_mcu7t5v0__buf_2
XFILLER_3_279 VDD VDD VSS VSS gf180mcu_fd_sc_mcu7t5v0__fill_1
XTAP_TAPCELL_ROW_6_85 VDD VSS gf180mcu_fd_sc_mcu7t5v0__filltie
XFILLER_12_312 VDD VDD VSS VSS gf180mcu_fd_sc_mcu7t5v0__fill_2
XFILLER_11_8 VDD VDD VSS VSS gf180mcu_fd_sc_mcu7t5v0__fill_1
XFILLER_8_349 VDD VDD VSS VSS gf180mcu_fd_sc_mcu7t5v0__fillcap_16
XFILLER_15_172 VDD VDD VSS VSS gf180mcu_fd_sc_mcu7t5v0__fillcap_4
XTAP_TAPCELL_ROW_14_137 VDD VSS gf180mcu_fd_sc_mcu7t5v0__filltie
XTAP_TAPCELL_ROW_3_64 VDD VSS gf180mcu_fd_sc_mcu7t5v0__filltie
XFILLER_4_341 VDD VDD VSS VSS gf180mcu_fd_sc_mcu7t5v0__fillcap_4
XTAP_TAPCELL_ROW_11_118 VDD VSS gf180mcu_fd_sc_mcu7t5v0__filltie
XFILLER_9_422 VDD VDD VSS VSS gf180mcu_fd_sc_mcu7t5v0__fillcap_8
XTAP_TAPCELL_ROW_0_43 VDD VSS gf180mcu_fd_sc_mcu7t5v0__filltie
XFILLER_1_174 VDD VDD VSS VSS gf180mcu_fd_sc_mcu7t5v0__fillcap_16
XTAP_TAPCELL_ROW_0_32 VDD VSS gf180mcu_fd_sc_mcu7t5v0__filltie
X_182_ net32 net124 VDD VDD VSS VSS gf180mcu_fd_sc_mcu7t5v0__buf_2
XFILLER_11_229 VDD VDD VSS VSS gf180mcu_fd_sc_mcu7t5v0__fill_1
X_096_ net3 net5 Inst_S_WARMBOOT_ConfigMem.Inst_frame0_bit14.Q VDD VDD VSS VSS gf180mcu_fd_sc_mcu7t5v0__latq_1
X_165_ FrameStrobe[18] net98 VDD VDD VSS VSS gf180mcu_fd_sc_mcu7t5v0__buf_2
XFILLER_6_255 VDD VDD VSS VSS gf180mcu_fd_sc_mcu7t5v0__fillcap_8
XFILLER_15_354 VDD VDD VSS VSS gf180mcu_fd_sc_mcu7t5v0__fill_2
X_217_ net49 net150 VDD VDD VSS VSS gf180mcu_fd_sc_mcu7t5v0__buf_2
X_148_ FrameStrobe[1] net100 VDD VDD VSS VSS gf180mcu_fd_sc_mcu7t5v0__buf_2
XFILLER_3_203 VDD VDD VSS VSS gf180mcu_fd_sc_mcu7t5v0__fillcap_4
XTAP_TAPCELL_ROW_6_86 VDD VSS gf180mcu_fd_sc_mcu7t5v0__filltie
XFILLER_0_206 VDD VDD VSS VSS gf180mcu_fd_sc_mcu7t5v0__fillcap_8
XFILLER_2_291 VDD VDD VSS VSS gf180mcu_fd_sc_mcu7t5v0__fillcap_16
X_079_ Inst_S_WARMBOOT_ConfigMem.Inst_frame0_bit21.Q _041_ _042_ VDD VDD VSS VSS gf180mcu_fd_sc_mcu7t5v0__nand2_1
XFILLER_7_86 VDD VDD VSS VSS gf180mcu_fd_sc_mcu7t5v0__fill_1
XPHY_EDGE_ROW_5_Right_5 VDD VSS gf180mcu_fd_sc_mcu7t5v0__endcap
XTAP_TAPCELL_ROW_14_138 VDD VSS gf180mcu_fd_sc_mcu7t5v0__filltie
XTAP_TAPCELL_ROW_3_65 VDD VSS gf180mcu_fd_sc_mcu7t5v0__filltie
XTAP_TAPCELL_ROW_11_119 VDD VSS gf180mcu_fd_sc_mcu7t5v0__filltie
XFILLER_13_496 VDD VDD VSS VSS gf180mcu_fd_sc_mcu7t5v0__fill_2
XFILLER_9_445 VDD VDD VSS VSS gf180mcu_fd_sc_mcu7t5v0__fill_2
XFILLER_9_434 VDD VDD VSS VSS gf180mcu_fd_sc_mcu7t5v0__fill_2
XFILLER_4_10 VDD VDD VSS VSS gf180mcu_fd_sc_mcu7t5v0__fillcap_16
XFILLER_13_74 VDD VDD VSS VSS gf180mcu_fd_sc_mcu7t5v0__fill_1
X_181_ net33 net123 VDD VDD VSS VSS gf180mcu_fd_sc_mcu7t5v0__buf_2
XFILLER_1_142 VDD VDD VSS VSS gf180mcu_fd_sc_mcu7t5v0__fillcap_32
XTAP_TAPCELL_ROW_0_33 VDD VSS gf180mcu_fd_sc_mcu7t5v0__filltie
XTAP_TAPCELL_ROW_0_44 VDD VSS gf180mcu_fd_sc_mcu7t5v0__filltie
XFILLER_13_271 VDD VDD VSS VSS gf180mcu_fd_sc_mcu7t5v0__fill_1
XFILLER_9_242 VDD VDD VSS VSS gf180mcu_fd_sc_mcu7t5v0__fill_1
XFILLER_5_492 VDD VDD VSS VSS gf180mcu_fd_sc_mcu7t5v0__fillcap_4
X_164_ FrameStrobe[17] net97 VDD VDD VSS VSS gf180mcu_fd_sc_mcu7t5v0__buf_2
X_095_ net2 net5 Inst_S_WARMBOOT_ConfigMem.Inst_frame0_bit13.Q VDD VDD VSS VSS gf180mcu_fd_sc_mcu7t5v0__latq_1
XFILLER_10_263 VDD VDD VSS VSS gf180mcu_fd_sc_mcu7t5v0__fillcap_8
XFILLER_10_230 VDD VDD VSS VSS gf180mcu_fd_sc_mcu7t5v0__fill_1
XFILLER_1_88 VDD VDD VSS VSS gf180mcu_fd_sc_mcu7t5v0__fillcap_8
XFILLER_1_66 VDD VDD VSS VSS gf180mcu_fd_sc_mcu7t5v0__fillcap_4
XFILLER_6_212 VDD VDD VSS VSS gf180mcu_fd_sc_mcu7t5v0__fill_1
XFILLER_10_53 VDD VDD VSS VSS gf180mcu_fd_sc_mcu7t5v0__fillcap_16
XTAP_TAPCELL_ROW_6_87 VDD VSS gf180mcu_fd_sc_mcu7t5v0__filltie
XFILLER_3_248 VDD VDD VSS VSS gf180mcu_fd_sc_mcu7t5v0__fill_1
X_147_ net6 net89 VDD VDD VSS VSS gf180mcu_fd_sc_mcu7t5v0__buf_2
X_216_ net50 net149 VDD VDD VSS VSS gf180mcu_fd_sc_mcu7t5v0__buf_2
X_078_ net49 net53 Inst_S_WARMBOOT_ConfigMem.Inst_frame0_bit20.Q _041_ VDD VDD VSS
+ VSS gf180mcu_fd_sc_mcu7t5v0__mux2_2
XFILLER_12_314 VDD VDD VSS VSS gf180mcu_fd_sc_mcu7t5v0__fill_1
XFILLER_0_229 VDD VDD VSS VSS gf180mcu_fd_sc_mcu7t5v0__fillcap_8
XFILLER_0_218 VDD VDD VSS VSS gf180mcu_fd_sc_mcu7t5v0__fill_2
XTAP_TAPCELL_ROW_14_139 VDD VSS gf180mcu_fd_sc_mcu7t5v0__filltie
XPHY_EDGE_ROW_11_Right_11 VDD VSS gf180mcu_fd_sc_mcu7t5v0__endcap
XFILLER_12_199 VDD VDD VSS VSS gf180mcu_fd_sc_mcu7t5v0__fill_2
XFILLER_12_177 VDD VDD VSS VSS gf180mcu_fd_sc_mcu7t5v0__fillcap_4
XFILLER_12_111 VDD VDD VSS VSS gf180mcu_fd_sc_mcu7t5v0__fill_1
XTAP_TAPCELL_ROW_3_66 VDD VSS gf180mcu_fd_sc_mcu7t5v0__filltie
XFILLER_4_387 VDD VDD VSS VSS gf180mcu_fd_sc_mcu7t5v0__fill_2
XFILLER_4_398 VDD VDD VSS VSS gf180mcu_fd_sc_mcu7t5v0__fillcap_32
XFILLER_1_368 VDD VDD VSS VSS gf180mcu_fd_sc_mcu7t5v0__fillcap_32
XFILLER_9_413 VDD VDD VSS VSS gf180mcu_fd_sc_mcu7t5v0__fillcap_4
X_180_ net34 net122 VDD VDD VSS VSS gf180mcu_fd_sc_mcu7t5v0__buf_2
XFILLER_6_438 VDD VDD VSS VSS gf180mcu_fd_sc_mcu7t5v0__fillcap_16
XFILLER_6_427 VDD VDD VSS VSS gf180mcu_fd_sc_mcu7t5v0__fill_2
XFILLER_1_198 VDD VDD VSS VSS gf180mcu_fd_sc_mcu7t5v0__fillcap_4
XTAP_TAPCELL_ROW_0_34 VDD VSS gf180mcu_fd_sc_mcu7t5v0__filltie
XTAP_TAPCELL_ROW_0_45 VDD VSS gf180mcu_fd_sc_mcu7t5v0__filltie
X_163_ FrameStrobe[16] net96 VDD VDD VSS VSS gf180mcu_fd_sc_mcu7t5v0__buf_2
X_094_ net27 net23 Inst_S_WARMBOOT_ConfigMem.Inst_frame0_bit13.Q Inst_S_WARMBOOT_switch_matrix.N1BEG0
+ VDD VDD VSS VSS gf180mcu_fd_sc_mcu7t5v0__mux2_2
XFILLER_5_290 VDD VDD VSS VSS gf180mcu_fd_sc_mcu7t5v0__fillcap_4
XFILLER_15_356 VDD VDD VSS VSS gf180mcu_fd_sc_mcu7t5v0__fill_1
X_215_ net51 net148 VDD VDD VSS VSS gf180mcu_fd_sc_mcu7t5v0__buf_2
XPHY_EDGE_ROW_11_Left_27 VDD VSS gf180mcu_fd_sc_mcu7t5v0__endcap
X_146_ net22 net81 VDD VDD VSS VSS gf180mcu_fd_sc_mcu7t5v0__buf_2
X_077_ net41 net45 Inst_S_WARMBOOT_ConfigMem.Inst_frame0_bit20.Q _040_ VDD VDD VSS
+ VSS gf180mcu_fd_sc_mcu7t5v0__mux2_2
XFILLER_11_392 VDD VDD VSS VSS gf180mcu_fd_sc_mcu7t5v0__fillcap_8
XFILLER_7_352 VDD VDD VSS VSS gf180mcu_fd_sc_mcu7t5v0__fillcap_4
XFILLER_7_66 VDD VDD VSS VSS gf180mcu_fd_sc_mcu7t5v0__fillcap_4
X_129_ net3 net62 VDD VDD VSS VSS gf180mcu_fd_sc_mcu7t5v0__buf_2
XFILLER_4_333 VDD VDD VSS VSS gf180mcu_fd_sc_mcu7t5v0__fillcap_8
XPHY_EDGE_ROW_14_Left_30 VDD VSS gf180mcu_fd_sc_mcu7t5v0__endcap
XFILLER_1_347 VDD VDD VSS VSS gf180mcu_fd_sc_mcu7t5v0__fill_2
XFILLER_1_314 VDD VDD VSS VSS gf180mcu_fd_sc_mcu7t5v0__fillcap_4
XFILLER_13_498 VDD VDD VSS VSS gf180mcu_fd_sc_mcu7t5v0__fill_1
XFILLER_13_487 VDD VDD VSS VSS gf180mcu_fd_sc_mcu7t5v0__fill_2
XTAP_TAPCELL_ROW_10_110 VDD VSS gf180mcu_fd_sc_mcu7t5v0__filltie
XFILLER_9_447 VDD VDD VSS VSS gf180mcu_fd_sc_mcu7t5v0__fill_1
XFILLER_9_436 VDD VDD VSS VSS gf180mcu_fd_sc_mcu7t5v0__fill_1
XFILLER_4_34 VDD VDD VSS VSS gf180mcu_fd_sc_mcu7t5v0__fill_1
XFILLER_13_10 VDD VDD VSS VSS gf180mcu_fd_sc_mcu7t5v0__fillcap_4
XTAP_TAPCELL_ROW_0_35 VDD VSS gf180mcu_fd_sc_mcu7t5v0__filltie
XFILLER_1_111 VDD VDD VSS VSS gf180mcu_fd_sc_mcu7t5v0__fillcap_16
X_093_ net26 net23 Inst_S_WARMBOOT_ConfigMem.Inst_frame0_bit14.Q Inst_S_WARMBOOT_switch_matrix.N1BEG1
+ VDD VDD VSS VSS gf180mcu_fd_sc_mcu7t5v0__mux2_2
XFILLER_10_287 VDD VDD VSS VSS gf180mcu_fd_sc_mcu7t5v0__fill_2
XFILLER_10_243 VDD VDD VSS VSS gf180mcu_fd_sc_mcu7t5v0__fill_2
X_162_ FrameStrobe[15] net95 VDD VDD VSS VSS gf180mcu_fd_sc_mcu7t5v0__buf_2
XFILLER_10_77 VDD VDD VSS VSS gf180mcu_fd_sc_mcu7t5v0__fillcap_4
Xinput1 CONFIGURED_top net1 VDD VDD VSS VSS gf180mcu_fd_sc_mcu7t5v0__buf_2
XFILLER_3_228 VDD VDD VSS VSS gf180mcu_fd_sc_mcu7t5v0__fillcap_4
X_145_ net21 net80 VDD VDD VSS VSS gf180mcu_fd_sc_mcu7t5v0__buf_2
X_076_ _036_ _037_ _039_ net163 VDD VDD VSS VSS gf180mcu_fd_sc_mcu7t5v0__aoi21_1
X_214_ net52 net147 VDD VDD VSS VSS gf180mcu_fd_sc_mcu7t5v0__buf_2
XFILLER_12_349 VDD VDD VSS VSS gf180mcu_fd_sc_mcu7t5v0__fillcap_4
X_059_ net51 net55 Inst_S_WARMBOOT_ConfigMem.Inst_frame0_bit29.Q _025_ VDD VDD VSS
+ VSS gf180mcu_fd_sc_mcu7t5v0__mux2_2
X_128_ net2 net61 VDD VDD VSS VSS gf180mcu_fd_sc_mcu7t5v0__buf_2
XFILLER_7_397 VDD VDD VSS VSS gf180mcu_fd_sc_mcu7t5v0__fillcap_4
XFILLER_4_312 VDD VDD VSS VSS gf180mcu_fd_sc_mcu7t5v0__fill_2
XTAP_TAPCELL_ROW_13_130 VDD VSS gf180mcu_fd_sc_mcu7t5v0__filltie
XPHY_EDGE_ROW_9_Right_9 VDD VSS gf180mcu_fd_sc_mcu7t5v0__endcap
XFILLER_7_150 VDD VDD VSS VSS gf180mcu_fd_sc_mcu7t5v0__fillcap_4
XFILLER_4_389 VDD VDD VSS VSS gf180mcu_fd_sc_mcu7t5v0__fill_1
XFILLER_13_422 VDD VDD VSS VSS gf180mcu_fd_sc_mcu7t5v0__fill_1
XTAP_TAPCELL_ROW_10_111 VDD VSS gf180mcu_fd_sc_mcu7t5v0__filltie
XTAP_TAPCELL_ROW_0_36 VDD VSS gf180mcu_fd_sc_mcu7t5v0__filltie
XFILLER_6_429 VDD VDD VSS VSS gf180mcu_fd_sc_mcu7t5v0__fill_1
XFILLER_13_263 VDD VDD VSS VSS gf180mcu_fd_sc_mcu7t5v0__fillcap_8
XFILLER_9_267 VDD VDD VSS VSS gf180mcu_fd_sc_mcu7t5v0__fillcap_4
XFILLER_9_212 VDD VDD VSS VSS gf180mcu_fd_sc_mcu7t5v0__fillcap_16
X_161_ FrameStrobe[14] net94 VDD VDD VSS VSS gf180mcu_fd_sc_mcu7t5v0__buf_2
X_092_ net25 net23 Inst_S_WARMBOOT_ConfigMem.Inst_frame0_bit15.Q Inst_S_WARMBOOT_switch_matrix.N1BEG2
+ VDD VDD VSS VSS gf180mcu_fd_sc_mcu7t5v0__mux2_2
Xinput2 FrameData[13] net2 VDD VDD VSS VSS gf180mcu_fd_sc_mcu7t5v0__buf_2
XFILLER_3_207 VDD VDD VSS VSS gf180mcu_fd_sc_mcu7t5v0__fill_2