* NGSPICE file created from GF_SRAM.ext - technology: gf180mcuD

* Black-box entry subcircuit for gf180mcu_fd_sc_mcu7t5v0__mux4_1 abstract view
.subckt gf180mcu_fd_sc_mcu7t5v0__mux4_1 I0 I1 I2 I3 S0 S1 Z VDD VNW VPW VSS
.ends

* Black-box entry subcircuit for gf180mcu_fd_sc_mcu7t5v0__fillcap_8 abstract view
.subckt gf180mcu_fd_sc_mcu7t5v0__fillcap_8 VDD VNW VPW VSS
.ends

* Black-box entry subcircuit for gf180mcu_fd_sc_mcu7t5v0__filltie abstract view
.subckt gf180mcu_fd_sc_mcu7t5v0__filltie VDD VSS
.ends

* Black-box entry subcircuit for gf180mcu_fd_sc_mcu7t5v0__fillcap_16 abstract view
.subckt gf180mcu_fd_sc_mcu7t5v0__fillcap_16 VDD VNW VPW VSS
.ends

* Black-box entry subcircuit for gf180mcu_fd_sc_mcu7t5v0__endcap abstract view
.subckt gf180mcu_fd_sc_mcu7t5v0__endcap VDD VSS
.ends

* Black-box entry subcircuit for gf180mcu_fd_sc_mcu7t5v0__fillcap_64 abstract view
.subckt gf180mcu_fd_sc_mcu7t5v0__fillcap_64 VDD VNW VPW VSS
.ends

* Black-box entry subcircuit for gf180mcu_fd_sc_mcu7t5v0__fill_2 abstract view
.subckt gf180mcu_fd_sc_mcu7t5v0__fill_2 VDD VNW VPW VSS
.ends

* Black-box entry subcircuit for gf180mcu_fd_sc_mcu7t5v0__fillcap_4 abstract view
.subckt gf180mcu_fd_sc_mcu7t5v0__fillcap_4 VDD VNW VPW VSS
.ends

* Black-box entry subcircuit for gf180mcu_fd_sc_mcu7t5v0__buf_1 abstract view
.subckt gf180mcu_fd_sc_mcu7t5v0__buf_1 I Z VDD VNW VPW VSS
.ends

* Black-box entry subcircuit for gf180mcu_fd_sc_mcu7t5v0__clkinv_1 abstract view
.subckt gf180mcu_fd_sc_mcu7t5v0__clkinv_1 I ZN VDD VNW VPW VSS
.ends

* Black-box entry subcircuit for gf180mcu_fd_sc_mcu7t5v0__latq_1 abstract view
.subckt gf180mcu_fd_sc_mcu7t5v0__latq_1 D E Q VDD VNW VPW VSS
.ends

* Black-box entry subcircuit for gf180mcu_fd_sc_mcu7t5v0__nor2_1 abstract view
.subckt gf180mcu_fd_sc_mcu7t5v0__nor2_1 A1 A2 ZN VDD VNW VPW VSS
.ends

* Black-box entry subcircuit for gf180mcu_fd_sc_mcu7t5v0__fill_1 abstract view
.subckt gf180mcu_fd_sc_mcu7t5v0__fill_1 VDD VNW VPW VSS
.ends

* Black-box entry subcircuit for gf180mcu_fd_sc_mcu7t5v0__fillcap_32 abstract view
.subckt gf180mcu_fd_sc_mcu7t5v0__fillcap_32 VDD VNW VPW VSS
.ends

* Black-box entry subcircuit for gf180mcu_fd_sc_mcu7t5v0__oai21_1 abstract view
.subckt gf180mcu_fd_sc_mcu7t5v0__oai21_1 A1 A2 B ZN VDD VNW VPW VSS
.ends

* Black-box entry subcircuit for gf180mcu_fd_sc_mcu7t5v0__mux2_2 abstract view
.subckt gf180mcu_fd_sc_mcu7t5v0__mux2_2 I0 I1 S Z VDD VNW VPW VSS
.ends

* Black-box entry subcircuit for gf180mcu_fd_sc_mcu7t5v0__antenna abstract view
.subckt gf180mcu_fd_sc_mcu7t5v0__antenna I VDD VNW VPW VSS
.ends

* Black-box entry subcircuit for gf180mcu_fd_sc_mcu7t5v0__aoi211_1 abstract view
.subckt gf180mcu_fd_sc_mcu7t5v0__aoi211_1 A1 A2 B C ZN VDD VNW VPW VSS
.ends

* Black-box entry subcircuit for gf180mcu_fd_sc_mcu7t5v0__nand2_1 abstract view
.subckt gf180mcu_fd_sc_mcu7t5v0__nand2_1 A1 A2 ZN VDD VNW VPW VSS
.ends

* Black-box entry subcircuit for gf180mcu_fd_sc_mcu7t5v0__nor3_1 abstract view
.subckt gf180mcu_fd_sc_mcu7t5v0__nor3_1 A1 A2 A3 ZN VDD VNW VPW VSS
.ends

* Black-box entry subcircuit for gf180mcu_fd_sc_mcu7t5v0__oai22_1 abstract view
.subckt gf180mcu_fd_sc_mcu7t5v0__oai22_1 A1 A2 B1 B2 ZN VDD VNW VPW VSS
.ends

* Black-box entry subcircuit for gf180mcu_fd_sc_mcu7t5v0__nand3_1 abstract view
.subckt gf180mcu_fd_sc_mcu7t5v0__nand3_1 A1 A2 A3 ZN VDD VNW VPW VSS
.ends

* Black-box entry subcircuit for gf180mcu_fd_sc_mcu7t5v0__oai31_1 abstract view
.subckt gf180mcu_fd_sc_mcu7t5v0__oai31_1 A1 A2 A3 B ZN VDD VNW VPW VSS
.ends

* Black-box entry subcircuit for gf180mcu_fd_sc_mcu7t5v0__aoi221_1 abstract view
.subckt gf180mcu_fd_sc_mcu7t5v0__aoi221_1 A1 A2 B1 B2 C ZN VDD VNW VPW VSS
.ends

* Black-box entry subcircuit for gf180mcu_fd_sc_mcu7t5v0__clkbuf_16 abstract view
.subckt gf180mcu_fd_sc_mcu7t5v0__clkbuf_16 I Z VDD VNW VPW VSS
.ends

* Black-box entry subcircuit for gf180mcu_fd_sc_mcu7t5v0__and3_1 abstract view
.subckt gf180mcu_fd_sc_mcu7t5v0__and3_1 A1 A2 A3 Z VDD VNW VPW VSS
.ends

* Black-box entry subcircuit for gf180mcu_fd_sc_mcu7t5v0__aoi21_1 abstract view
.subckt gf180mcu_fd_sc_mcu7t5v0__aoi21_1 A1 A2 B ZN VDD VNW VPW VSS
.ends

* Black-box entry subcircuit for gf180mcu_fd_sc_mcu7t5v0__oai221_1 abstract view
.subckt gf180mcu_fd_sc_mcu7t5v0__oai221_1 A1 A2 B1 B2 C ZN VDD VNW VPW VSS
.ends

.subckt GF_SRAM A_SRAM0 A_SRAM1 A_SRAM2 A_SRAM3 A_SRAM4 A_SRAM5 A_SRAM6 A_SRAM7 A_SRAM8
+ CEN_SRAM CLK_SRAM CONFIGURED_top D_SRAM0 D_SRAM1 D_SRAM2 D_SRAM3 D_SRAM4 D_SRAM5
+ D_SRAM6 D_SRAM7 GWEN_SRAM Q_SRAM0 Q_SRAM1 Q_SRAM2 Q_SRAM3 Q_SRAM4 Q_SRAM5 Q_SRAM6
+ Q_SRAM7 Tile_X0Y0_E1END[0] Tile_X0Y0_E1END[1] Tile_X0Y0_E1END[2] Tile_X0Y0_E1END[3]
+ Tile_X0Y0_E2END[0] Tile_X0Y0_E2END[1] Tile_X0Y0_E2END[2] Tile_X0Y0_E2END[3] Tile_X0Y0_E2END[4]
+ Tile_X0Y0_E2END[5] Tile_X0Y0_E2END[6] Tile_X0Y0_E2END[7] Tile_X0Y0_E2MID[0] Tile_X0Y0_E2MID[1]
+ Tile_X0Y0_E2MID[2] Tile_X0Y0_E2MID[3] Tile_X0Y0_E2MID[4] Tile_X0Y0_E2MID[5] Tile_X0Y0_E2MID[6]
+ Tile_X0Y0_E2MID[7] Tile_X0Y0_E6END[0] Tile_X0Y0_E6END[10] Tile_X0Y0_E6END[11] Tile_X0Y0_E6END[1]
+ Tile_X0Y0_E6END[2] Tile_X0Y0_E6END[3] Tile_X0Y0_E6END[4] Tile_X0Y0_E6END[5] Tile_X0Y0_E6END[6]
+ Tile_X0Y0_E6END[7] Tile_X0Y0_E6END[8] Tile_X0Y0_E6END[9] Tile_X0Y0_EE4END[0] Tile_X0Y0_EE4END[10]
+ Tile_X0Y0_EE4END[11] Tile_X0Y0_EE4END[12] Tile_X0Y0_EE4END[13] Tile_X0Y0_EE4END[14]
+ Tile_X0Y0_EE4END[15] Tile_X0Y0_EE4END[1] Tile_X0Y0_EE4END[2] Tile_X0Y0_EE4END[3]
+ Tile_X0Y0_EE4END[4] Tile_X0Y0_EE4END[5] Tile_X0Y0_EE4END[6] Tile_X0Y0_EE4END[7]
+ Tile_X0Y0_EE4END[8] Tile_X0Y0_EE4END[9] Tile_X0Y0_FrameData[0] Tile_X0Y0_FrameData[10]
+ Tile_X0Y0_FrameData[11] Tile_X0Y0_FrameData[12] Tile_X0Y0_FrameData[13] Tile_X0Y0_FrameData[14]
+ Tile_X0Y0_FrameData[15] Tile_X0Y0_FrameData[16] Tile_X0Y0_FrameData[17] Tile_X0Y0_FrameData[18]
+ Tile_X0Y0_FrameData[19] Tile_X0Y0_FrameData[1] Tile_X0Y0_FrameData[20] Tile_X0Y0_FrameData[21]
+ Tile_X0Y0_FrameData[22] Tile_X0Y0_FrameData[23] Tile_X0Y0_FrameData[24] Tile_X0Y0_FrameData[25]
+ Tile_X0Y0_FrameData[26] Tile_X0Y0_FrameData[27] Tile_X0Y0_FrameData[28] Tile_X0Y0_FrameData[29]
+ Tile_X0Y0_FrameData[2] Tile_X0Y0_FrameData[30] Tile_X0Y0_FrameData[31] Tile_X0Y0_FrameData[3]
+ Tile_X0Y0_FrameData[4] Tile_X0Y0_FrameData[5] Tile_X0Y0_FrameData[6] Tile_X0Y0_FrameData[7]
+ Tile_X0Y0_FrameData[8] Tile_X0Y0_FrameData[9] Tile_X0Y0_FrameData_O[0] Tile_X0Y0_FrameData_O[10]
+ Tile_X0Y0_FrameData_O[11] Tile_X0Y0_FrameData_O[12] Tile_X0Y0_FrameData_O[13] Tile_X0Y0_FrameData_O[14]
+ Tile_X0Y0_FrameData_O[15] Tile_X0Y0_FrameData_O[16] Tile_X0Y0_FrameData_O[17] Tile_X0Y0_FrameData_O[18]
+ Tile_X0Y0_FrameData_O[19] Tile_X0Y0_FrameData_O[1] Tile_X0Y0_FrameData_O[20] Tile_X0Y0_FrameData_O[21]
+ Tile_X0Y0_FrameData_O[22] Tile_X0Y0_FrameData_O[23] Tile_X0Y0_FrameData_O[24] Tile_X0Y0_FrameData_O[25]
+ Tile_X0Y0_FrameData_O[26] Tile_X0Y0_FrameData_O[27] Tile_X0Y0_FrameData_O[28] Tile_X0Y0_FrameData_O[29]
+ Tile_X0Y0_FrameData_O[2] Tile_X0Y0_FrameData_O[30] Tile_X0Y0_FrameData_O[31] Tile_X0Y0_FrameData_O[3]
+ Tile_X0Y0_FrameData_O[4] Tile_X0Y0_FrameData_O[5] Tile_X0Y0_FrameData_O[6] Tile_X0Y0_FrameData_O[7]
+ Tile_X0Y0_FrameData_O[8] Tile_X0Y0_FrameData_O[9] Tile_X0Y0_FrameStrobe_O[0] Tile_X0Y0_FrameStrobe_O[10]
+ Tile_X0Y0_FrameStrobe_O[11] Tile_X0Y0_FrameStrobe_O[12] Tile_X0Y0_FrameStrobe_O[13]
+ Tile_X0Y0_FrameStrobe_O[14] Tile_X0Y0_FrameStrobe_O[15] Tile_X0Y0_FrameStrobe_O[16]
+ Tile_X0Y0_FrameStrobe_O[17] Tile_X0Y0_FrameStrobe_O[18] Tile_X0Y0_FrameStrobe_O[19]
+ Tile_X0Y0_FrameStrobe_O[1] Tile_X0Y0_FrameStrobe_O[2] Tile_X0Y0_FrameStrobe_O[3]
+ Tile_X0Y0_FrameStrobe_O[4] Tile_X0Y0_FrameStrobe_O[5] Tile_X0Y0_FrameStrobe_O[6]
+ Tile_X0Y0_FrameStrobe_O[7] Tile_X0Y0_FrameStrobe_O[8] Tile_X0Y0_FrameStrobe_O[9]
+ Tile_X0Y0_N1BEG[0] Tile_X0Y0_N1BEG[1] Tile_X0Y0_N1BEG[2] Tile_X0Y0_N1BEG[3] Tile_X0Y0_N2BEG[0]
+ Tile_X0Y0_N2BEG[1] Tile_X0Y0_N2BEG[2] Tile_X0Y0_N2BEG[3] Tile_X0Y0_N2BEG[4] Tile_X0Y0_N2BEG[5]
+ Tile_X0Y0_N2BEG[6] Tile_X0Y0_N2BEG[7] Tile_X0Y0_N2BEGb[0] Tile_X0Y0_N2BEGb[1] Tile_X0Y0_N2BEGb[2]
+ Tile_X0Y0_N2BEGb[3] Tile_X0Y0_N2BEGb[4] Tile_X0Y0_N2BEGb[5] Tile_X0Y0_N2BEGb[6]
+ Tile_X0Y0_N2BEGb[7] Tile_X0Y0_N4BEG[0] Tile_X0Y0_N4BEG[10] Tile_X0Y0_N4BEG[11] Tile_X0Y0_N4BEG[12]
+ Tile_X0Y0_N4BEG[13] Tile_X0Y0_N4BEG[14] Tile_X0Y0_N4BEG[15] Tile_X0Y0_N4BEG[1] Tile_X0Y0_N4BEG[2]
+ Tile_X0Y0_N4BEG[3] Tile_X0Y0_N4BEG[4] Tile_X0Y0_N4BEG[5] Tile_X0Y0_N4BEG[6] Tile_X0Y0_N4BEG[7]
+ Tile_X0Y0_N4BEG[8] Tile_X0Y0_N4BEG[9] Tile_X0Y0_S1END[0] Tile_X0Y0_S1END[1] Tile_X0Y0_S1END[2]
+ Tile_X0Y0_S1END[3] Tile_X0Y0_S2END[0] Tile_X0Y0_S2END[1] Tile_X0Y0_S2END[2] Tile_X0Y0_S2END[3]
+ Tile_X0Y0_S2END[4] Tile_X0Y0_S2END[5] Tile_X0Y0_S2END[6] Tile_X0Y0_S2END[7] Tile_X0Y0_S2MID[0]
+ Tile_X0Y0_S2MID[1] Tile_X0Y0_S2MID[2] Tile_X0Y0_S2MID[3] Tile_X0Y0_S2MID[4] Tile_X0Y0_S2MID[5]
+ Tile_X0Y0_S2MID[6] Tile_X0Y0_S2MID[7] Tile_X0Y0_S4END[0] Tile_X0Y0_S4END[10] Tile_X0Y0_S4END[11]
+ Tile_X0Y0_S4END[12] Tile_X0Y0_S4END[13] Tile_X0Y0_S4END[14] Tile_X0Y0_S4END[15]
+ Tile_X0Y0_S4END[1] Tile_X0Y0_S4END[2] Tile_X0Y0_S4END[3] Tile_X0Y0_S4END[4] Tile_X0Y0_S4END[5]
+ Tile_X0Y0_S4END[6] Tile_X0Y0_S4END[7] Tile_X0Y0_S4END[8] Tile_X0Y0_S4END[9] Tile_X0Y0_UserCLKo
+ Tile_X0Y0_W1BEG[0] Tile_X0Y0_W1BEG[1] Tile_X0Y0_W1BEG[2] Tile_X0Y0_W1BEG[3] Tile_X0Y0_W2BEG[0]
+ Tile_X0Y0_W2BEG[1] Tile_X0Y0_W2BEG[2] Tile_X0Y0_W2BEG[3] Tile_X0Y0_W2BEG[4] Tile_X0Y0_W2BEG[5]
+ Tile_X0Y0_W2BEG[6] Tile_X0Y0_W2BEG[7] Tile_X0Y0_W2BEGb[0] Tile_X0Y0_W2BEGb[1] Tile_X0Y0_W2BEGb[2]
+ Tile_X0Y0_W2BEGb[3] Tile_X0Y0_W2BEGb[4] Tile_X0Y0_W2BEGb[5] Tile_X0Y0_W2BEGb[6]
+ Tile_X0Y0_W2BEGb[7] Tile_X0Y0_W6BEG[0] Tile_X0Y0_W6BEG[10] Tile_X0Y0_W6BEG[11] Tile_X0Y0_W6BEG[1]
+ Tile_X0Y0_W6BEG[2] Tile_X0Y0_W6BEG[3] Tile_X0Y0_W6BEG[4] Tile_X0Y0_W6BEG[5] Tile_X0Y0_W6BEG[6]
+ Tile_X0Y0_W6BEG[7] Tile_X0Y0_W6BEG[8] Tile_X0Y0_W6BEG[9] Tile_X0Y0_WW4BEG[0] Tile_X0Y0_WW4BEG[10]
+ Tile_X0Y0_WW4BEG[11] Tile_X0Y0_WW4BEG[12] Tile_X0Y0_WW4BEG[13] Tile_X0Y0_WW4BEG[14]
+ Tile_X0Y0_WW4BEG[15] Tile_X0Y0_WW4BEG[1] Tile_X0Y0_WW4BEG[2] Tile_X0Y0_WW4BEG[3]
+ Tile_X0Y0_WW4BEG[4] Tile_X0Y0_WW4BEG[5] Tile_X0Y0_WW4BEG[6] Tile_X0Y0_WW4BEG[7]
+ Tile_X0Y0_WW4BEG[8] Tile_X0Y0_WW4BEG[9] Tile_X0Y1_E1END[0] Tile_X0Y1_E1END[1] Tile_X0Y1_E1END[2]
+ Tile_X0Y1_E1END[3] Tile_X0Y1_E2END[0] Tile_X0Y1_E2END[1] Tile_X0Y1_E2END[2] Tile_X0Y1_E2END[3]
+ Tile_X0Y1_E2END[4] Tile_X0Y1_E2END[5] Tile_X0Y1_E2END[6] Tile_X0Y1_E2END[7] Tile_X0Y1_E2MID[0]
+ Tile_X0Y1_E2MID[1] Tile_X0Y1_E2MID[2] Tile_X0Y1_E2MID[3] Tile_X0Y1_E2MID[4] Tile_X0Y1_E2MID[5]
+ Tile_X0Y1_E2MID[6] Tile_X0Y1_E2MID[7] Tile_X0Y1_E6END[0] Tile_X0Y1_E6END[10] Tile_X0Y1_E6END[11]
+ Tile_X0Y1_E6END[1] Tile_X0Y1_E6END[2] Tile_X0Y1_E6END[3] Tile_X0Y1_E6END[4] Tile_X0Y1_E6END[5]
+ Tile_X0Y1_E6END[6] Tile_X0Y1_E6END[7] Tile_X0Y1_E6END[8] Tile_X0Y1_E6END[9] Tile_X0Y1_EE4END[0]
+ Tile_X0Y1_EE4END[10] Tile_X0Y1_EE4END[11] Tile_X0Y1_EE4END[12] Tile_X0Y1_EE4END[13]
+ Tile_X0Y1_EE4END[14] Tile_X0Y1_EE4END[15] Tile_X0Y1_EE4END[1] Tile_X0Y1_EE4END[2]
+ Tile_X0Y1_EE4END[3] Tile_X0Y1_EE4END[4] Tile_X0Y1_EE4END[5] Tile_X0Y1_EE4END[6]
+ Tile_X0Y1_EE4END[7] Tile_X0Y1_EE4END[8] Tile_X0Y1_EE4END[9] Tile_X0Y1_FrameData[0]
+ Tile_X0Y1_FrameData[10] Tile_X0Y1_FrameData[11] Tile_X0Y1_FrameData[12] Tile_X0Y1_FrameData[13]
+ Tile_X0Y1_FrameData[14] Tile_X0Y1_FrameData[15] Tile_X0Y1_FrameData[16] Tile_X0Y1_FrameData[17]
+ Tile_X0Y1_FrameData[18] Tile_X0Y1_FrameData[19] Tile_X0Y1_FrameData[1] Tile_X0Y1_FrameData[20]
+ Tile_X0Y1_FrameData[21] Tile_X0Y1_FrameData[22] Tile_X0Y1_FrameData[23] Tile_X0Y1_FrameData[24]
+ Tile_X0Y1_FrameData[25] Tile_X0Y1_FrameData[26] Tile_X0Y1_FrameData[27] Tile_X0Y1_FrameData[28]
+ Tile_X0Y1_FrameData[29] Tile_X0Y1_FrameData[2] Tile_X0Y1_FrameData[30] Tile_X0Y1_FrameData[31]
+ Tile_X0Y1_FrameData[3] Tile_X0Y1_FrameData[4] Tile_X0Y1_FrameData[5] Tile_X0Y1_FrameData[6]
+ Tile_X0Y1_FrameData[7] Tile_X0Y1_FrameData[8] Tile_X0Y1_FrameData[9] Tile_X0Y1_FrameData_O[0]
+ Tile_X0Y1_FrameData_O[10] Tile_X0Y1_FrameData_O[11] Tile_X0Y1_FrameData_O[12] Tile_X0Y1_FrameData_O[13]
+ Tile_X0Y1_FrameData_O[14] Tile_X0Y1_FrameData_O[15] Tile_X0Y1_FrameData_O[16] Tile_X0Y1_FrameData_O[17]
+ Tile_X0Y1_FrameData_O[18] Tile_X0Y1_FrameData_O[19] Tile_X0Y1_FrameData_O[1] Tile_X0Y1_FrameData_O[20]
+ Tile_X0Y1_FrameData_O[21] Tile_X0Y1_FrameData_O[22] Tile_X0Y1_FrameData_O[23] Tile_X0Y1_FrameData_O[24]
+ Tile_X0Y1_FrameData_O[25] Tile_X0Y1_FrameData_O[26] Tile_X0Y1_FrameData_O[27] Tile_X0Y1_FrameData_O[28]
+ Tile_X0Y1_FrameData_O[29] Tile_X0Y1_FrameData_O[2] Tile_X0Y1_FrameData_O[30] Tile_X0Y1_FrameData_O[31]
+ Tile_X0Y1_FrameData_O[3] Tile_X0Y1_FrameData_O[4] Tile_X0Y1_FrameData_O[5] Tile_X0Y1_FrameData_O[6]
+ Tile_X0Y1_FrameData_O[7] Tile_X0Y1_FrameData_O[8] Tile_X0Y1_FrameData_O[9] Tile_X0Y1_FrameStrobe[0]
+ Tile_X0Y1_FrameStrobe[10] Tile_X0Y1_FrameStrobe[11] Tile_X0Y1_FrameStrobe[12] Tile_X0Y1_FrameStrobe[13]
+ Tile_X0Y1_FrameStrobe[14] Tile_X0Y1_FrameStrobe[15] Tile_X0Y1_FrameStrobe[16] Tile_X0Y1_FrameStrobe[17]
+ Tile_X0Y1_FrameStrobe[18] Tile_X0Y1_FrameStrobe[19] Tile_X0Y1_FrameStrobe[1] Tile_X0Y1_FrameStrobe[2]
+ Tile_X0Y1_FrameStrobe[3] Tile_X0Y1_FrameStrobe[4] Tile_X0Y1_FrameStrobe[5] Tile_X0Y1_FrameStrobe[6]
+ Tile_X0Y1_FrameStrobe[7] Tile_X0Y1_FrameStrobe[8] Tile_X0Y1_FrameStrobe[9] Tile_X0Y1_N1END[0]
+ Tile_X0Y1_N1END[1] Tile_X0Y1_N1END[2] Tile_X0Y1_N1END[3] Tile_X0Y1_N2END[0] Tile_X0Y1_N2END[1]
+ Tile_X0Y1_N2END[2] Tile_X0Y1_N2END[3] Tile_X0Y1_N2END[4] Tile_X0Y1_N2END[5] Tile_X0Y1_N2END[6]
+ Tile_X0Y1_N2END[7] Tile_X0Y1_N2MID[0] Tile_X0Y1_N2MID[1] Tile_X0Y1_N2MID[2] Tile_X0Y1_N2MID[3]
+ Tile_X0Y1_N2MID[4] Tile_X0Y1_N2MID[5] Tile_X0Y1_N2MID[6] Tile_X0Y1_N2MID[7] Tile_X0Y1_N4END[0]
+ Tile_X0Y1_N4END[10] Tile_X0Y1_N4END[11] Tile_X0Y1_N4END[12] Tile_X0Y1_N4END[13]
+ Tile_X0Y1_N4END[14] Tile_X0Y1_N4END[15] Tile_X0Y1_N4END[1] Tile_X0Y1_N4END[2] Tile_X0Y1_N4END[3]
+ Tile_X0Y1_N4END[4] Tile_X0Y1_N4END[5] Tile_X0Y1_N4END[6] Tile_X0Y1_N4END[7] Tile_X0Y1_N4END[8]
+ Tile_X0Y1_N4END[9] Tile_X0Y1_S1BEG[0] Tile_X0Y1_S1BEG[1] Tile_X0Y1_S1BEG[2] Tile_X0Y1_S1BEG[3]
+ Tile_X0Y1_S2BEG[0] Tile_X0Y1_S2BEG[1] Tile_X0Y1_S2BEG[2] Tile_X0Y1_S2BEG[3] Tile_X0Y1_S2BEG[4]
+ Tile_X0Y1_S2BEG[5] Tile_X0Y1_S2BEG[6] Tile_X0Y1_S2BEG[7] Tile_X0Y1_S2BEGb[0] Tile_X0Y1_S2BEGb[1]
+ Tile_X0Y1_S2BEGb[2] Tile_X0Y1_S2BEGb[3] Tile_X0Y1_S2BEGb[4] Tile_X0Y1_S2BEGb[5]
+ Tile_X0Y1_S2BEGb[6] Tile_X0Y1_S2BEGb[7] Tile_X0Y1_S4BEG[0] Tile_X0Y1_S4BEG[10] Tile_X0Y1_S4BEG[11]
+ Tile_X0Y1_S4BEG[12] Tile_X0Y1_S4BEG[13] Tile_X0Y1_S4BEG[14] Tile_X0Y1_S4BEG[15]
+ Tile_X0Y1_S4BEG[1] Tile_X0Y1_S4BEG[2] Tile_X0Y1_S4BEG[3] Tile_X0Y1_S4BEG[4] Tile_X0Y1_S4BEG[5]
+ Tile_X0Y1_S4BEG[6] Tile_X0Y1_S4BEG[7] Tile_X0Y1_S4BEG[8] Tile_X0Y1_S4BEG[9] Tile_X0Y1_UserCLK
+ Tile_X0Y1_W1BEG[0] Tile_X0Y1_W1BEG[1] Tile_X0Y1_W1BEG[2] Tile_X0Y1_W1BEG[3] Tile_X0Y1_W2BEG[0]
+ Tile_X0Y1_W2BEG[1] Tile_X0Y1_W2BEG[2] Tile_X0Y1_W2BEG[3] Tile_X0Y1_W2BEG[4] Tile_X0Y1_W2BEG[5]
+ Tile_X0Y1_W2BEG[6] Tile_X0Y1_W2BEG[7] Tile_X0Y1_W2BEGb[0] Tile_X0Y1_W2BEGb[1] Tile_X0Y1_W2BEGb[2]
+ Tile_X0Y1_W2BEGb[3] Tile_X0Y1_W2BEGb[4] Tile_X0Y1_W2BEGb[5] Tile_X0Y1_W2BEGb[6]
+ Tile_X0Y1_W2BEGb[7] Tile_X0Y1_W6BEG[0] Tile_X0Y1_W6BEG[10] Tile_X0Y1_W6BEG[11] Tile_X0Y1_W6BEG[1]
+ Tile_X0Y1_W6BEG[2] Tile_X0Y1_W6BEG[3] Tile_X0Y1_W6BEG[4] Tile_X0Y1_W6BEG[5] Tile_X0Y1_W6BEG[6]
+ Tile_X0Y1_W6BEG[7] Tile_X0Y1_W6BEG[8] Tile_X0Y1_W6BEG[9] Tile_X0Y1_WW4BEG[0] Tile_X0Y1_WW4BEG[10]
+ Tile_X0Y1_WW4BEG[11] Tile_X0Y1_WW4BEG[12] Tile_X0Y1_WW4BEG[13] Tile_X0Y1_WW4BEG[14]
+ Tile_X0Y1_WW4BEG[15] Tile_X0Y1_WW4BEG[1] Tile_X0Y1_WW4BEG[2] Tile_X0Y1_WW4BEG[3]
+ Tile_X0Y1_WW4BEG[4] Tile_X0Y1_WW4BEG[5] Tile_X0Y1_WW4BEG[6] Tile_X0Y1_WW4BEG[7]
+ Tile_X0Y1_WW4BEG[8] Tile_X0Y1_WW4BEG[9] VDD VSS WEN_SRAM0 WEN_SRAM1 WEN_SRAM2 WEN_SRAM3
+ WEN_SRAM4 WEN_SRAM5 WEN_SRAM6 WEN_SRAM7
X_0298_ Tile_X0Y0_GF_SRAM_top.Inst_GF_SRAM_top_switch_matrix.N2BEGb1 Tile_X0Y0_S2MID[1]
+ Tile_X0Y1_N2MID[1] Tile_X0Y0_S2END[1] Tile_X0Y0_GF_SRAM_top.Inst_GF_SRAM_top_ConfigMem.Inst_frame0_bit11.Q
+ Tile_X0Y0_GF_SRAM_top.Inst_GF_SRAM_top_ConfigMem.Inst_frame0_bit10.Q Tile_X0Y0_GF_SRAM_top.Inst_GF_SRAM_top_switch_matrix.J_NS2_BEG1
+ VDD VDD VSS VSS gf180mcu_fd_sc_mcu7t5v0__mux4_1
X_0367_ Q_SRAM5 Tile_X0Y0_GF_SRAM_top.Inst_GF_SRAM_top_switch_matrix.J_NS4_BEG14 Q_SRAM6
+ Tile_X0Y0_GF_SRAM_top.Inst_GF_SRAM_top_switch_matrix.J_NS2_BEG6 Tile_X0Y0_GF_SRAM_top.Inst_GF_SRAM_top_ConfigMem.Inst_frame4_bit17.Q
+ Tile_X0Y0_GF_SRAM_top.Inst_GF_SRAM_top_ConfigMem.Inst_frame4_bit16.Q Tile_X0Y0_GF_SRAM_top.Inst_GF_SRAM_top_switch_matrix.WW4BEG1
+ VDD VDD VSS VSS gf180mcu_fd_sc_mcu7t5v0__mux4_1
XFILLER_54_247 VDD VDD VSS VSS gf180mcu_fd_sc_mcu7t5v0__fillcap_8
XTAP_TAPCELL_ROW_37_423 VDD VSS gf180mcu_fd_sc_mcu7t5v0__filltie
XFILLER_39_244 VDD VDD VSS VSS gf180mcu_fd_sc_mcu7t5v0__fillcap_16
XPHY_EDGE_ROW_99_Left_243 VDD VSS gf180mcu_fd_sc_mcu7t5v0__endcap
XFILLER_22_177 VDD VDD VSS VSS gf180mcu_fd_sc_mcu7t5v0__fillcap_64
XFILLER_123_208 VDD VDD VSS VSS gf180mcu_fd_sc_mcu7t5v0__fill_2
XFILLER_108_238 VDD VDD VSS VSS gf180mcu_fd_sc_mcu7t5v0__fillcap_4
XFILLER_89_177 VDD VDD VSS VSS gf180mcu_fd_sc_mcu7t5v0__fill_2
XFILLER_77_15 VDD VDD VSS VSS gf180mcu_fd_sc_mcu7t5v0__fill_2
XTAP_TAPCELL_ROW_5_310 VDD VSS gf180mcu_fd_sc_mcu7t5v0__filltie
XFILLER_133_98 VDD VDD VSS VSS gf180mcu_fd_sc_mcu7t5v0__fill_2
XTAP_TAPCELL_ROW_83_584 VDD VSS gf180mcu_fd_sc_mcu7t5v0__filltie
XFILLER_26_41 VDD VDD VSS VSS gf180mcu_fd_sc_mcu7t5v0__fill_2
XTAP_TAPCELL_ROW_110_677 VDD VSS gf180mcu_fd_sc_mcu7t5v0__filltie
XTAP_TAPCELL_ROW_51_470 VDD VSS gf180mcu_fd_sc_mcu7t5v0__filltie
XFILLER_107_260 VDD VDD VSS VSS gf180mcu_fd_sc_mcu7t5v0__fill_2
X_1270_ Tile_X0Y0_GF_SRAM_top.Inst_GF_SRAM_top_switch_matrix.W6BEG11 net132 VDD VDD
+ VSS VSS gf180mcu_fd_sc_mcu7t5v0__buf_1
X_0221_ Tile_X0Y0_GF_SRAM_top.Inst_GF_SRAM_top_ConfigMem.Inst_frame1_bit1.Q _0150_
+ VDD VDD VSS VSS gf180mcu_fd_sc_mcu7t5v0__clkinv_1
XTAP_TAPCELL_ROW_74_551 VDD VSS gf180mcu_fd_sc_mcu7t5v0__filltie
XFILLER_36_247 VDD VDD VSS VSS gf180mcu_fd_sc_mcu7t5v0__fillcap_16
XTAP_TAPCELL_ROW_133_758 VDD VSS gf180mcu_fd_sc_mcu7t5v0__filltie
XFILLER_51_206 VDD VDD VSS VSS gf180mcu_fd_sc_mcu7t5v0__fillcap_4
X_0985_ Tile_X0Y1_FrameData[27] Tile_X0Y1_FrameStrobe[3] Tile_X0Y1_GF_SRAM_bot.Inst_GF_SRAM_bot_ConfigMem.Inst_frame3_bit27.Q
+ VDD VDD VSS VSS gf180mcu_fd_sc_mcu7t5v0__latq_1
X_0419_ _0152_ Tile_X0Y0_GF_SRAM_top.Inst_GF_SRAM_top_switch_matrix.J_NS2_BEG3 _0035_
+ VDD VDD VSS VSS gf180mcu_fd_sc_mcu7t5v0__nor2_1
XTAP_TAPCELL_ROW_97_632 VDD VSS gf180mcu_fd_sc_mcu7t5v0__filltie
X_1399_ Tile_X0Y1_GF_SRAM_bot.Inst_GF_SRAM_bot_switch_matrix.WW4BEG12 net261 VDD VDD
+ VSS VSS gf180mcu_fd_sc_mcu7t5v0__buf_1
XTAP_TAPCELL_ROW_124_725 VDD VSS gf180mcu_fd_sc_mcu7t5v0__filltie
XFILLER_6_107 VDD VDD VSS VSS gf180mcu_fd_sc_mcu7t5v0__fillcap_4
XFILLER_104_263 VDD VDD VSS VSS gf180mcu_fd_sc_mcu7t5v0__fillcap_4
XFILLER_92_139 VDD VDD VSS VSS gf180mcu_fd_sc_mcu7t5v0__fill_2
XFILLER_18_247 VDD VDD VSS VSS gf180mcu_fd_sc_mcu7t5v0__fillcap_16
XFILLER_53_72 VDD VDD VSS VSS gf180mcu_fd_sc_mcu7t5v0__fillcap_4
XFILLER_33_206 VDD VDD VSS VSS gf180mcu_fd_sc_mcu7t5v0__fillcap_4
XFILLER_41_261 VDD VDD VSS VSS gf180mcu_fd_sc_mcu7t5v0__fill_2
X_0770_ Tile_X0Y0_FrameData[16] Tile_X0Y1_FrameStrobe[4] Tile_X0Y0_GF_SRAM_top.Inst_GF_SRAM_top_ConfigMem.Inst_frame4_bit16.Q
+ VDD VDD VSS VSS gf180mcu_fd_sc_mcu7t5v0__latq_1
X_1253_ Tile_X0Y0_GF_SRAM_top.Inst_GF_SRAM_top_switch_matrix.W2BEGb2 net124 VDD VDD
+ VSS VSS gf180mcu_fd_sc_mcu7t5v0__buf_1
X_1322_ Tile_X0Y1_GF_SRAM_bot.Inst_GF_SRAM_bot_switch_matrix.S1BEG3 net193 VDD VDD
+ VSS VSS gf180mcu_fd_sc_mcu7t5v0__buf_1
XFILLER_38_4 VDD VDD VSS VSS gf180mcu_fd_sc_mcu7t5v0__fill_1
X_1184_ Tile_X0Y1_FrameStrobe[2] net65 VDD VDD VSS VSS gf180mcu_fd_sc_mcu7t5v0__buf_1
XTAP_TAPCELL_ROW_121_717 VDD VSS gf180mcu_fd_sc_mcu7t5v0__filltie
XTAP_TAPCELL_ROW_62_510 VDD VSS gf180mcu_fd_sc_mcu7t5v0__filltie
X_0968_ Tile_X0Y1_FrameData[12] Tile_X0Y1_FrameStrobe[2] Tile_X0Y1_GF_SRAM_bot.Inst_GF_SRAM_bot_ConfigMem.Inst_frame2_bit12.Q
+ VDD VDD VSS VSS gf180mcu_fd_sc_mcu7t5v0__latq_1
Xoutput242 net242 Tile_X0Y1_W2BEGb[4] VDD VDD VSS VSS gf180mcu_fd_sc_mcu7t5v0__buf_1
Xoutput220 net220 Tile_X0Y1_S4BEG[4] VDD VDD VSS VSS gf180mcu_fd_sc_mcu7t5v0__buf_1
X_0899_ Tile_X0Y1_FrameData[17] Tile_X0Y1_FrameStrobe[0] Tile_X0Y1_GF_SRAM_bot.Inst_GF_SRAM_bot_ConfigMem.Inst_frame0_bit17.Q
+ VDD VDD VSS VSS gf180mcu_fd_sc_mcu7t5v0__latq_1
Xoutput264 net264 Tile_X0Y1_WW4BEG[15] VDD VDD VSS VSS gf180mcu_fd_sc_mcu7t5v0__buf_1
Xoutput231 net231 Tile_X0Y1_W2BEG[1] VDD VDD VSS VSS gf180mcu_fd_sc_mcu7t5v0__buf_1
Xoutput275 net275 WEN_SRAM1 VDD VDD VSS VSS gf180mcu_fd_sc_mcu7t5v0__buf_1
Xoutput253 net253 Tile_X0Y1_W6BEG[5] VDD VDD VSS VSS gf180mcu_fd_sc_mcu7t5v0__buf_1
XFILLER_114_45 VDD VDD VSS VSS gf180mcu_fd_sc_mcu7t5v0__fill_2
XFILLER_114_34 VDD VDD VSS VSS gf180mcu_fd_sc_mcu7t5v0__fill_1
XFILLER_101_266 VDD VDD VSS VSS gf180mcu_fd_sc_mcu7t5v0__fill_2
XFILLER_101_244 VDD VDD VSS VSS gf180mcu_fd_sc_mcu7t5v0__fillcap_8
XFILLER_130_22 VDD VDD VSS VSS gf180mcu_fd_sc_mcu7t5v0__fill_1
XFILLER_82_183 VDD VDD VSS VSS gf180mcu_fd_sc_mcu7t5v0__fillcap_32
XFILLER_139_31 VDD VDD VSS VSS gf180mcu_fd_sc_mcu7t5v0__fill_1
XPHY_EDGE_ROW_137_Right_137 VDD VSS gf180mcu_fd_sc_mcu7t5v0__endcap
XFILLER_136_174 VDD VDD VSS VSS gf180mcu_fd_sc_mcu7t5v0__fill_1
XFILLER_128_2 VDD VDD VSS VSS gf180mcu_fd_sc_mcu7t5v0__fill_1
XFILLER_97_209 VDD VDD VSS VSS gf180mcu_fd_sc_mcu7t5v0__fill_1
XFILLER_48_61 VDD VDD VSS VSS gf180mcu_fd_sc_mcu7t5v0__fillcap_4
XFILLER_65_139 VDD VDD VSS VSS gf180mcu_fd_sc_mcu7t5v0__fill_1
XPHY_EDGE_ROW_45_Left_189 VDD VSS gf180mcu_fd_sc_mcu7t5v0__endcap
XPHY_EDGE_ROW_104_Right_104 VDD VSS gf180mcu_fd_sc_mcu7t5v0__endcap
X_0822_ Tile_X0Y0_FrameData[28] Tile_X0Y1_FrameStrobe[6] Tile_X0Y0_GF_SRAM_top.Inst_GF_SRAM_top_ConfigMem.Inst_frame6_bit28.Q
+ VDD VDD VSS VSS gf180mcu_fd_sc_mcu7t5v0__latq_1
XFILLER_80_92 VDD VDD VSS VSS gf180mcu_fd_sc_mcu7t5v0__fillcap_8
XFILLER_127_185 VDD VDD VSS VSS gf180mcu_fd_sc_mcu7t5v0__fillcap_16
X_0684_ Tile_X0Y0_FrameData[6] Tile_X0Y1_FrameStrobe[1] Tile_X0Y0_GF_SRAM_top.Inst_GF_SRAM_top_ConfigMem.Inst_frame1_bit6.Q
+ VDD VDD VSS VSS gf180mcu_fd_sc_mcu7t5v0__latq_1
X_0753_ Tile_X0Y0_FrameData[1] Tile_X0Y1_FrameStrobe[3] Tile_X0Y0_GF_SRAM_top.Inst_GF_SRAM_top_ConfigMem.Inst_frame3_bit1.Q
+ VDD VDD VSS VSS gf180mcu_fd_sc_mcu7t5v0__latq_1
XPHY_EDGE_ROW_54_Left_198 VDD VSS gf180mcu_fd_sc_mcu7t5v0__endcap
XFILLER_43_2 VDD VDD VSS VSS gf180mcu_fd_sc_mcu7t5v0__fillcap_4
X_1236_ Tile_X0Y0_GF_SRAM_top.Inst_GF_SRAM_top_switch_matrix.N4BEG2 net98 VDD VDD
+ VSS VSS gf180mcu_fd_sc_mcu7t5v0__buf_1
X_1305_ Tile_X0Y1_FrameData[18] net167 VDD VDD VSS VSS gf180mcu_fd_sc_mcu7t5v0__buf_1
XFILLER_56_139 VDD VDD VSS VSS gf180mcu_fd_sc_mcu7t5v0__fillcap_4
X_1167_ Tile_X0Y0_FrameData[17] net29 VDD VDD VSS VSS gf180mcu_fd_sc_mcu7t5v0__buf_1
XFILLER_64_150 VDD VDD VSS VSS gf180mcu_fd_sc_mcu7t5v0__fillcap_16
X_1098_ Tile_X0Y1_FrameData[10] Tile_X0Y1_FrameStrobe[6] Tile_X0Y1_GF_SRAM_bot.Inst_GF_SRAM_bot_ConfigMem.Inst_frame6_bit10.Q
+ VDD VDD VSS VSS gf180mcu_fd_sc_mcu7t5v0__latq_1
XFILLER_118_174 VDD VDD VSS VSS gf180mcu_fd_sc_mcu7t5v0__fill_1
XFILLER_85_15 VDD VDD VSS VSS gf180mcu_fd_sc_mcu7t5v0__fill_2
XFILLER_79_209 VDD VDD VSS VSS gf180mcu_fd_sc_mcu7t5v0__fill_1
XFILLER_62_109 VDD VDD VSS VSS gf180mcu_fd_sc_mcu7t5v0__fill_1
XFILLER_47_139 VDD VDD VSS VSS gf180mcu_fd_sc_mcu7t5v0__fill_1
XFILLER_70_186 VDD VDD VSS VSS gf180mcu_fd_sc_mcu7t5v0__fillcap_32
XFILLER_7_268 VDD VDD VSS VSS gf180mcu_fd_sc_mcu7t5v0__fill_1
XFILLER_124_177 VDD VDD VSS VSS gf180mcu_fd_sc_mcu7t5v0__fillcap_64
XFILLER_93_212 VDD VDD VSS VSS gf180mcu_fd_sc_mcu7t5v0__fillcap_32
XFILLER_61_142 VDD VDD VSS VSS gf180mcu_fd_sc_mcu7t5v0__fillcap_16
XFILLER_61_120 VDD VDD VSS VSS gf180mcu_fd_sc_mcu7t5v0__fillcap_8
X_1021_ Tile_X0Y1_FrameData[23] Tile_X0Y1_FrameStrobe[4] Tile_X0Y1_GF_SRAM_bot.Inst_GF_SRAM_bot_ConfigMem.Inst_frame4_bit23.Q
+ VDD VDD VSS VSS gf180mcu_fd_sc_mcu7t5v0__latq_1
XFILLER_46_172 VDD VDD VSS VSS gf180mcu_fd_sc_mcu7t5v0__fill_2
X_0805_ Tile_X0Y0_FrameData[13] Tile_X0Y1_FrameStrobe[5] Tile_X0Y0_GF_SRAM_top.Inst_GF_SRAM_top_ConfigMem.Inst_frame5_bit13.Q
+ VDD VDD VSS VSS gf180mcu_fd_sc_mcu7t5v0__latq_1
XPHY_EDGE_ROW_62_Left_206 VDD VSS gf180mcu_fd_sc_mcu7t5v0__endcap
X_0736_ Tile_X0Y0_FrameData[18] Tile_X0Y1_FrameStrobe[3] Tile_X0Y0_GF_SRAM_top.Inst_GF_SRAM_top_ConfigMem.Inst_frame3_bit18.Q
+ VDD VDD VSS VSS gf180mcu_fd_sc_mcu7t5v0__latq_1
X_0667_ Tile_X0Y0_FrameData[23] Tile_X0Y1_FrameStrobe[1] Tile_X0Y0_GF_SRAM_top.Inst_GF_SRAM_top_ConfigMem.Inst_frame1_bit23.Q
+ VDD VDD VSS VSS gf180mcu_fd_sc_mcu7t5v0__latq_1
XPHY_EDGE_ROW_71_Left_215 VDD VSS gf180mcu_fd_sc_mcu7t5v0__endcap
X_0598_ _0139_ Tile_X0Y1_GF_SRAM_bot.Inst_GF_SRAM_bot_ConfigMem.Inst_frame2_bit4.Q
+ _0118_ _0119_ VDD VDD VSS VSS gf180mcu_fd_sc_mcu7t5v0__oai21_1
X_1219_ Tile_X0Y0_GF_SRAM_top.Inst_GF_SRAM_top_switch_matrix.N2BEGb5 net90 VDD VDD
+ VSS VSS gf180mcu_fd_sc_mcu7t5v0__buf_1
XFILLER_138_225 VDD VDD VSS VSS gf180mcu_fd_sc_mcu7t5v0__fill_2
XPHY_EDGE_ROW_80_Left_224 VDD VSS gf180mcu_fd_sc_mcu7t5v0__endcap
XFILLER_138_247 VDD VDD VSS VSS gf180mcu_fd_sc_mcu7t5v0__fillcap_8
XFILLER_4_227 VDD VDD VSS VSS gf180mcu_fd_sc_mcu7t5v0__fill_2
XFILLER_75_212 VDD VDD VSS VSS gf180mcu_fd_sc_mcu7t5v0__fillcap_32
XFILLER_29_63 VDD VDD VSS VSS gf180mcu_fd_sc_mcu7t5v0__fillcap_4
XPHY_EDGE_ROW_119_Left_263 VDD VSS gf180mcu_fd_sc_mcu7t5v0__endcap
XFILLER_90_237 VDD VDD VSS VSS gf180mcu_fd_sc_mcu7t5v0__fillcap_8
XFILLER_45_84 VDD VDD VSS VSS gf180mcu_fd_sc_mcu7t5v0__fill_1
XFILLER_77_8 VDD VDD VSS VSS gf180mcu_fd_sc_mcu7t5v0__fill_1
XFILLER_61_72 VDD VDD VSS VSS gf180mcu_fd_sc_mcu7t5v0__fillcap_8
XTAP_TAPCELL_ROW_26_384 VDD VSS gf180mcu_fd_sc_mcu7t5v0__filltie
XPHY_EDGE_ROW_128_Left_272 VDD VSS gf180mcu_fd_sc_mcu7t5v0__endcap
X_0452_ _0057_ _0056_ Tile_X0Y0_GF_SRAM_top.Inst_GF_SRAM_top_ConfigMem.Inst_frame2_bit8.Q
+ net16 VDD VDD VSS VSS gf180mcu_fd_sc_mcu7t5v0__mux2_2
XANTENNA_5 Tile_X0Y0_S2MID[4] VDD VDD VSS VSS gf180mcu_fd_sc_mcu7t5v0__antenna
X_0521_ Tile_X0Y1_N1END[2] Tile_X0Y1_N4END[2] _0194_ Tile_X0Y0_S4END[6] Tile_X0Y1_GF_SRAM_bot.Inst_GF_SRAM_bot_ConfigMem.Inst_frame1_bit20.Q
+ Tile_X0Y1_GF_SRAM_bot.Inst_GF_SRAM_bot_ConfigMem.Inst_frame1_bit21.Q Tile_X0Y1_GF_SRAM_bot.Inst_GF_SRAM_bot_switch_matrix.J_NS4_BEG6
+ VDD VDD VSS VSS gf180mcu_fd_sc_mcu7t5v0__mux4_1
XPHY_EDGE_ROW_137_Left_281 VDD VSS gf180mcu_fd_sc_mcu7t5v0__endcap
X_0383_ Tile_X0Y0_GF_SRAM_top.Inst_GF_SRAM_top_switch_matrix.N1END1 Tile_X0Y1_N4END[5]
+ Tile_X0Y0_S1END[1] Tile_X0Y0_S4END[1] Tile_X0Y0_GF_SRAM_top.Inst_GF_SRAM_top_ConfigMem.Inst_frame1_bit18.Q
+ Tile_X0Y0_GF_SRAM_top.Inst_GF_SRAM_top_ConfigMem.Inst_frame1_bit19.Q Tile_X0Y0_GF_SRAM_top.Inst_GF_SRAM_top_switch_matrix.J_NS4_BEG5
+ VDD VDD VSS VSS gf180mcu_fd_sc_mcu7t5v0__mux4_1
XTAP_TAPCELL_ROW_49_465 VDD VSS gf180mcu_fd_sc_mcu7t5v0__filltie
X_1004_ Tile_X0Y1_FrameData[8] Tile_X0Y1_FrameStrobe[3] Tile_X0Y1_GF_SRAM_bot.Inst_GF_SRAM_bot_ConfigMem.Inst_frame3_bit8.Q
+ VDD VDD VSS VSS gf180mcu_fd_sc_mcu7t5v0__latq_1
XTAP_TAPCELL_ROW_17_351 VDD VSS gf180mcu_fd_sc_mcu7t5v0__filltie
XFILLER_111_180 VDD VDD VSS VSS gf180mcu_fd_sc_mcu7t5v0__fill_1
XFILLER_103_158 VDD VDD VSS VSS gf180mcu_fd_sc_mcu7t5v0__fillcap_4
X_0719_ Tile_X0Y0_FrameData[3] Tile_X0Y1_FrameStrobe[2] Tile_X0Y0_GF_SRAM_top.Inst_GF_SRAM_top_ConfigMem.Inst_frame2_bit3.Q
+ VDD VDD VSS VSS gf180mcu_fd_sc_mcu7t5v0__latq_1
XFILLER_57_212 VDD VDD VSS VSS gf180mcu_fd_sc_mcu7t5v0__fillcap_32
Xoutput53 net53 Tile_X0Y0_FrameStrobe_O[0] VDD VDD VSS VSS gf180mcu_fd_sc_mcu7t5v0__buf_1
Xoutput64 net64 Tile_X0Y0_FrameStrobe_O[1] VDD VDD VSS VSS gf180mcu_fd_sc_mcu7t5v0__buf_1
Xoutput75 net75 Tile_X0Y0_N1BEG[2] VDD VDD VSS VSS gf180mcu_fd_sc_mcu7t5v0__buf_1
XFILLER_141_209 VDD VDD VSS VSS gf180mcu_fd_sc_mcu7t5v0__fill_1
Xoutput42 net42 Tile_X0Y0_FrameData_O[29] VDD VDD VSS VSS gf180mcu_fd_sc_mcu7t5v0__buf_1
Xoutput31 net31 Tile_X0Y0_FrameData_O[19] VDD VDD VSS VSS gf180mcu_fd_sc_mcu7t5v0__buf_1
XFILLER_110_2 VDD VDD VSS VSS gf180mcu_fd_sc_mcu7t5v0__fillcap_4
Xoutput20 net20 GWEN_SRAM VDD VDD VSS VSS gf180mcu_fd_sc_mcu7t5v0__buf_1
Xoutput7 net7 A_SRAM6 VDD VDD VSS VSS gf180mcu_fd_sc_mcu7t5v0__buf_1
Xoutput97 net97 Tile_X0Y0_N4BEG[13] VDD VDD VSS VSS gf180mcu_fd_sc_mcu7t5v0__buf_1
Xoutput86 net86 Tile_X0Y0_N2BEGb[1] VDD VDD VSS VSS gf180mcu_fd_sc_mcu7t5v0__buf_1
XTAP_TAPCELL_ROW_86_593 VDD VSS gf180mcu_fd_sc_mcu7t5v0__filltie
XFILLER_48_267 VDD VDD VSS VSS gf180mcu_fd_sc_mcu7t5v0__fill_2
XTAP_TAPCELL_ROW_14_343 VDD VSS gf180mcu_fd_sc_mcu7t5v0__filltie
XFILLER_16_131 VDD VDD VSS VSS gf180mcu_fd_sc_mcu7t5v0__fillcap_8
X_0435_ Tile_X0Y0_GF_SRAM_top.Inst_GF_SRAM_top_switch_matrix.J_NS4_BEG7 Tile_X0Y0_GF_SRAM_top.Inst_GF_SRAM_top_switch_matrix.J_NS4_BEG15
+ _0022_ Tile_X0Y0_GF_SRAM_top.Inst_GF_SRAM_top_switch_matrix.J_NS2_BEG3 Tile_X0Y0_GF_SRAM_top.Inst_GF_SRAM_top_ConfigMem.Inst_frame6_bit0.Q
+ Tile_X0Y0_GF_SRAM_top.Inst_GF_SRAM_top_ConfigMem.Inst_frame7_bit31.Q _0046_ VDD
+ VDD VSS VSS gf180mcu_fd_sc_mcu7t5v0__mux4_1
XFILLER_100_117 VDD VDD VSS VSS gf180mcu_fd_sc_mcu7t5v0__fill_1
X_0504_ Q_SRAM1 _0001_ Q_SRAM2 _0004_ Tile_X0Y1_GF_SRAM_bot.Inst_GF_SRAM_bot_ConfigMem.Inst_frame4_bit3.Q
+ Tile_X0Y1_GF_SRAM_bot.Inst_GF_SRAM_bot_ConfigMem.Inst_frame4_bit2.Q Tile_X0Y1_GF_SRAM_bot.Inst_GF_SRAM_bot_switch_matrix.W2BEGb5
+ VDD VDD VSS VSS gf180mcu_fd_sc_mcu7t5v0__mux4_1
XFILLER_39_212 VDD VDD VSS VSS gf180mcu_fd_sc_mcu7t5v0__fillcap_32
XTAP_TAPCELL_ROW_136_767 VDD VSS gf180mcu_fd_sc_mcu7t5v0__filltie
X_0366_ Q_SRAM4 Q_SRAM7 Tile_X0Y0_GF_SRAM_top.Inst_GF_SRAM_top_switch_matrix.J_NS4_BEG15
+ Tile_X0Y0_GF_SRAM_top.Inst_GF_SRAM_top_switch_matrix.J_NS2_BEG7 Tile_X0Y0_GF_SRAM_top.Inst_GF_SRAM_top_ConfigMem.Inst_frame4_bit14.Q
+ Tile_X0Y0_GF_SRAM_top.Inst_GF_SRAM_top_ConfigMem.Inst_frame4_bit15.Q Tile_X0Y0_GF_SRAM_top.Inst_GF_SRAM_top_switch_matrix.WW4BEG0
+ VDD VDD VSS VSS gf180mcu_fd_sc_mcu7t5v0__mux4_1
X_0297_ Tile_X0Y1_E2MID[6] Tile_X0Y1_E2END[6] Tile_X0Y1_E6END[6] _0000_ Tile_X0Y1_GF_SRAM_bot.Inst_GF_SRAM_bot_ConfigMem.Inst_frame7_bit2.Q