*SPEF "ieee 1481-1999"
*DESIGN "S_WARMBOOT"
*DATE "11:06:37 Friday November 28, 2025"
*VENDOR "The OpenROAD Project"
*PROGRAM "OpenROAD"
*VERSION "341650e72dad0dc8571822ff8c5d9c5e365327f7"
*DESIGN_FLOW "NAME_SCOPE LOCAL" "PIN_CAP NONE"
*DIVIDER /
*DELIMITER :
*BUS_DELIMITER []
*T_UNIT 1 NS
*C_UNIT 1 PF
*R_UNIT 1 OHM
*L_UNIT 1 HENRY

*NAME_MAP
*1 BOOT_top
*2 CONFIGURED_top
*3 net166
*4 FrameData[0]
*5 FrameData[10]
*6 FrameData[11]
*7 FrameData[12]
*8 FrameData[13]
*9 FrameData[14]
*10 FrameData[15]
*11 FrameData[16]
*12 FrameData[17]
*13 FrameData[18]
*14 FrameData[19]
*15 FrameData[1]
*16 FrameData[20]
*17 FrameData[21]
*18 FrameData[22]
*19 FrameData[23]
*20 FrameData[24]
*21 FrameData[25]
*22 FrameData[26]
*23 FrameData[27]
*24 FrameData[28]
*25 FrameData[29]
*26 FrameData[2]
*27 FrameData[30]
*28 FrameData[31]
*29 FrameData[3]
*30 FrameData[4]
*31 FrameData[5]
*32 FrameData[6]
*33 FrameData[7]
*34 FrameData[8]
*35 FrameData[9]
*36 FrameData_O[0]
*37 FrameData_O[10]
*38 FrameData_O[11]
*39 FrameData_O[12]
*40 FrameData_O[13]
*41 FrameData_O[14]
*42 FrameData_O[15]
*43 FrameData_O[16]
*44 FrameData_O[17]
*45 FrameData_O[18]
*46 FrameData_O[19]
*47 FrameData_O[1]
*48 FrameData_O[20]
*49 FrameData_O[21]
*50 FrameData_O[22]
*51 FrameData_O[23]
*52 FrameData_O[24]
*53 FrameData_O[25]
*54 FrameData_O[26]
*55 FrameData_O[27]
*56 FrameData_O[28]
*57 FrameData_O[29]
*58 FrameData_O[2]
*59 FrameData_O[30]
*60 FrameData_O[31]
*61 FrameData_O[3]
*62 FrameData_O[4]
*63 FrameData_O[5]
*64 FrameData_O[6]
*65 FrameData_O[7]
*66 FrameData_O[8]
*67 FrameData_O[9]
*68 FrameStrobe[0]
*69 FrameStrobe[10]
*70 FrameStrobe[11]
*71 FrameStrobe[12]
*72 FrameStrobe[13]
*73 FrameStrobe[14]
*74 FrameStrobe[15]
*75 FrameStrobe[16]
*76 FrameStrobe[17]
*77 FrameStrobe[18]
*78 FrameStrobe[19]
*79 FrameStrobe[1]
*80 FrameStrobe[2]
*81 FrameStrobe[3]
*82 FrameStrobe[4]
*83 FrameStrobe[5]
*84 FrameStrobe[6]
*85 FrameStrobe[7]
*86 FrameStrobe[8]
*87 FrameStrobe[9]
*88 FrameStrobe_O[0]
*89 FrameStrobe_O[10]
*90 FrameStrobe_O[11]
*91 FrameStrobe_O[12]
*92 FrameStrobe_O[13]
*93 FrameStrobe_O[14]
*94 FrameStrobe_O[15]
*95 FrameStrobe_O[16]
*96 FrameStrobe_O[17]
*97 FrameStrobe_O[18]
*98 FrameStrobe_O[19]
*99 FrameStrobe_O[1]
*100 FrameStrobe_O[2]
*101 FrameStrobe_O[3]
*102 FrameStrobe_O[4]
*103 FrameStrobe_O[5]
*104 FrameStrobe_O[6]
*105 FrameStrobe_O[7]
*106 FrameStrobe_O[8]
*107 FrameStrobe_O[9]
*108 N1BEG[0]
*109 N1BEG[1]
*110 N1BEG[2]
*111 N1BEG[3]
*112 N2BEG[0]
*113 N2BEG[1]
*114 N2BEG[2]
*115 N2BEG[3]
*116 N2BEG[4]
*117 N2BEG[5]
*118 N2BEG[6]
*119 N2BEG[7]
*120 N2BEGb[0]
*121 N2BEGb[1]
*122 N2BEGb[2]
*123 N2BEGb[3]
*124 N2BEGb[4]
*125 N2BEGb[5]
*126 N2BEGb[6]
*127 N2BEGb[7]
*128 N4BEG[0]
*129 N4BEG[10]
*130 N4BEG[11]
*131 N4BEG[12]
*132 N4BEG[13]
*133 N4BEG[14]
*134 N4BEG[15]
*135 N4BEG[1]
*136 N4BEG[2]
*137 N4BEG[3]
*138 N4BEG[4]
*139 N4BEG[5]
*140 N4BEG[6]
*141 N4BEG[7]
*142 N4BEG[8]
*143 N4BEG[9]
*144 NN4BEG[0]
*145 NN4BEG[10]
*146 NN4BEG[11]
*147 NN4BEG[12]
*148 NN4BEG[13]
*149 NN4BEG[14]
*150 NN4BEG[15]
*151 NN4BEG[1]
*152 NN4BEG[2]
*153 NN4BEG[3]
*154 NN4BEG[4]
*155 NN4BEG[5]
*156 NN4BEG[6]
*157 NN4BEG[7]
*158 NN4BEG[8]
*159 NN4BEG[9]
*160 RESET_top
*161 S1END[0]
*162 S1END[1]
*163 S1END[2]
*164 S1END[3]
*165 S2END[0]
*166 S2END[1]
*167 S2END[2]
*168 S2END[3]
*169 S2END[4]
*170 S2END[5]
*171 S2END[6]
*172 S2END[7]
*173 S2MID[0]
*174 S2MID[1]
*175 S2MID[2]
*176 S2MID[3]
*177 S2MID[4]
*178 S2MID[5]
*179 S2MID[6]
*180 S2MID[7]
*181 S4END[0]
*182 S4END[10]
*183 S4END[11]
*184 S4END[12]
*185 S4END[13]
*186 S4END[14]
*187 S4END[15]
*188 S4END[1]
*189 S4END[2]
*190 S4END[3]
*191 S4END[4]
*192 S4END[5]
*193 S4END[6]
*194 S4END[7]
*195 S4END[8]
*196 S4END[9]
*197 SLOT_top0
*198 SLOT_top1
*199 SLOT_top2
*200 SLOT_top3
*201 SS4END[0]
*202 SS4END[10]
*203 SS4END[11]
*204 SS4END[12]
*205 SS4END[13]
*206 SS4END[14]
*207 SS4END[15]
*208 SS4END[1]
*209 SS4END[2]
*210 SS4END[3]
*211 SS4END[4]
*212 SS4END[5]
*213 SS4END[6]
*214 SS4END[7]
*215 SS4END[8]
*216 SS4END[9]
*217 UserCLK
*218 UserCLKo
*221 Inst_S_WARMBOOT_ConfigMem\.Inst_frame0_bit13\.Q
*222 Inst_S_WARMBOOT_ConfigMem\.Inst_frame0_bit14\.Q
*223 Inst_S_WARMBOOT_ConfigMem\.Inst_frame0_bit15\.Q
*224 Inst_S_WARMBOOT_ConfigMem\.Inst_frame0_bit16\.Q
*225 Inst_S_WARMBOOT_ConfigMem\.Inst_frame0_bit17\.Q
*226 Inst_S_WARMBOOT_ConfigMem\.Inst_frame0_bit18\.Q
*227 Inst_S_WARMBOOT_ConfigMem\.Inst_frame0_bit19\.Q
*228 Inst_S_WARMBOOT_ConfigMem\.Inst_frame0_bit20\.Q
*229 Inst_S_WARMBOOT_ConfigMem\.Inst_frame0_bit21\.Q
*230 Inst_S_WARMBOOT_ConfigMem\.Inst_frame0_bit22\.Q
*231 Inst_S_WARMBOOT_ConfigMem\.Inst_frame0_bit23\.Q
*232 Inst_S_WARMBOOT_ConfigMem\.Inst_frame0_bit24\.Q
*233 Inst_S_WARMBOOT_ConfigMem\.Inst_frame0_bit25\.Q
*234 Inst_S_WARMBOOT_ConfigMem\.Inst_frame0_bit26\.Q
*235 Inst_S_WARMBOOT_ConfigMem\.Inst_frame0_bit27\.Q
*236 Inst_S_WARMBOOT_ConfigMem\.Inst_frame0_bit28\.Q
*237 Inst_S_WARMBOOT_ConfigMem\.Inst_frame0_bit29\.Q
*238 Inst_S_WARMBOOT_ConfigMem\.Inst_frame0_bit30\.Q
*239 Inst_S_WARMBOOT_ConfigMem\.Inst_frame0_bit31\.Q
*240 Inst_S_WARMBOOT_switch_matrix\.N1BEG0
*241 Inst_S_WARMBOOT_switch_matrix\.N1BEG1
*242 Inst_S_WARMBOOT_switch_matrix\.N1BEG2
*243 Inst_S_WARMBOOT_switch_matrix\.N1BEG3
*244 _000_
*245 _001_
*246 _002_
*247 _003_
*248 _004_
*249 _005_
*250 _006_
*251 _007_
*252 _008_
*253 _009_
*254 _010_
*255 _011_
*256 _012_
*257 _013_
*258 _014_
*259 _015_
*260 _016_
*261 _017_
*262 _018_
*263 _019_
*264 _020_
*265 _021_
*266 _022_
*267 _023_
*268 _024_
*269 _025_
*270 _026_
*271 _027_
*272 _028_
*273 _029_
*274 _030_
*275 _031_
*276 _032_
*277 _033_
*278 _034_
*279 _035_
*280 _036_
*281 _037_
*282 _038_
*283 _039_
*284 _040_
*285 _041_
*286 _042_
*287 net1
*288 net10
*289 net100
*290 net101
*291 net102
*292 net103
*293 net104
*294 net105
*295 net106
*296 net107
*297 net108
*298 net109
*299 net11
*300 net110
*301 net111
*302 net112
*303 net113
*304 net114
*305 net115
*306 net116
*307 net117
*308 net118
*309 net119
*310 net12
*311 net120
*312 net121
*313 net122
*314 net123
*315 net124
*316 net125
*317 net126
*318 net127
*319 net128
*320 net129
*321 net13
*322 net130
*323 net131
*324 net132
*325 net133
*326 net134
*327 net135
*328 net136
*329 net137
*330 net138
*331 net139
*332 net14
*333 net140
*334 net141
*335 net142
*336 net143
*337 net144
*338 net145
*339 net146
*340 net147
*341 net148
*342 net149
*343 net15
*344 net150
*345 net151
*346 net152
*347 net153
*348 net154
*349 net155
*350 net156
*351 net157
*352 net158
*353 net159
*354 net16
*355 net160
*356 net161
*357 net162
*358 net163
*359 net164
*360 net165
*361 net17
*362 net18
*363 net19
*364 net2
*365 net20
*366 net21
*367 net22
*368 net23
*369 net24
*370 net25
*371 net26
*372 net27
*373 net28
*374 net29
*375 net3
*376 net30
*377 net31
*378 net32
*379 net33
*380 net34
*381 net35
*382 net36
*383 net37
*384 net38
*385 net39
*386 net4
*387 net40
*388 net41
*389 net42
*390 net43
*391 net44
*392 net45
*393 net46
*394 net47
*395 net48
*396 net49
*397 net5
*398 net50
*399 net51
*400 net52
*401 net53
*402 net54
*403 net55
*404 net56
*405 net57
*406 net58
*407 net59
*408 net6
*409 net60
*410 net61
*411 net62
*412 net63
*413 net64
*414 net65
*415 net66
*416 net67
*417 net68
*418 net69
*419 net7
*420 net70
*421 net71
*422 net72
*423 net73
*424 net74
*425 net75
*426 net76
*427 net77
*428 net78
*429 net79
*430 net8
*431 net80
*432 net81
*433 net82
*434 net83
*435 net84
*436 net85
*437 net86
*438 net87
*439 net88
*440 net89
*441 net9
*442 net90
*443 net91
*444 net92
*445 net93
*446 net94
*447 net95
*448 net96
*449 net97
*450 net98
*451 net99
*452 FILLER_0_101
*453 FILLER_0_104
*454 FILLER_0_112
*455 FILLER_0_114
*456 FILLER_0_129
*457 FILLER_0_133
*458 FILLER_0_135
*459 FILLER_0_138
*460 FILLER_0_15
*461 FILLER_0_172
*462 FILLER_0_2
*463 FILLER_0_206
*464 FILLER_0_214
*465 FILLER_0_218
*466 FILLER_0_220
*467 FILLER_0_229
*468 FILLER_0_23
*469 FILLER_0_237
*470 FILLER_0_240
*471 FILLER_0_274
*472 FILLER_0_308
*473 FILLER_0_33
*474 FILLER_0_342
*475 FILLER_0_36
*476 FILLER_0_376
*477 FILLER_0_410
*478 FILLER_0_444
*479 FILLER_0_478
*480 FILLER_0_482
*481 FILLER_0_484
*482 FILLER_0_6
*483 FILLER_0_70
*484 FILLER_0_78
*485 FILLER_0_93
*486 FILLER_10_107
*487 FILLER_10_116
*488 FILLER_10_148
*489 FILLER_10_152
*490 FILLER_10_162
*491 FILLER_10_170
*492 FILLER_10_174
*493 FILLER_10_177
*494 FILLER_10_179
*495 FILLER_10_2
*496 FILLER_10_212
*497 FILLER_10_228
*498 FILLER_10_230
*499 FILLER_10_239
*500 FILLER_10_243
*501 FILLER_10_247
*502 FILLER_10_263
*503 FILLER_10_271
*504 FILLER_10_287
*505 FILLER_10_309
*506 FILLER_10_313
*507 FILLER_10_325
*508 FILLER_10_341
*509 FILLER_10_345
*510 FILLER_10_354
*511 FILLER_10_360
*512 FILLER_10_387
*513 FILLER_10_395
*514 FILLER_10_4
*515 FILLER_10_407
*516 FILLER_10_415
*517 FILLER_10_53
*518 FILLER_10_69
*519 FILLER_10_77
*520 FILLER_10_89
*521 FILLER_11_103
*522 FILLER_11_107
*523 FILLER_11_116
*524 FILLER_11_131
*525 FILLER_11_139
*526 FILLER_11_142
*527 FILLER_11_146
*528 FILLER_11_164
*529 FILLER_11_172
*530 FILLER_11_184
*531 FILLER_11_193
*532 FILLER_11_2
*533 FILLER_11_201
*534 FILLER_11_212
*535 FILLER_11_216
*536 FILLER_11_225
*537 FILLER_11_229
*538 FILLER_11_23
*539 FILLER_11_245
*540 FILLER_11_269
*541 FILLER_11_27
*542 FILLER_11_277
*543 FILLER_11_279
*544 FILLER_11_282
*545 FILLER_11_346
*546 FILLER_11_352
*547 FILLER_11_368
*548 FILLER_11_376
*549 FILLER_11_392
*550 FILLER_11_400
*551 FILLER_11_404
*552 FILLER_11_406
*553 FILLER_11_415
*554 FILLER_11_419
*555 FILLER_11_422
*556 FILLER_11_43
*557 FILLER_11_47
*558 FILLER_11_492
*559 FILLER_11_496
*560 FILLER_11_498
*561 FILLER_11_6
*562 FILLER_11_63
*563 FILLER_11_67
*564 FILLER_11_69
*565 FILLER_11_72
*566 FILLER_11_74
*567 FILLER_11_8
*568 FILLER_12_104
*569 FILLER_12_107
*570 FILLER_12_111
*571 FILLER_12_163
*572 FILLER_12_177
*573 FILLER_12_195
*574 FILLER_12_199
*575 FILLER_12_2
*576 FILLER_12_247
*577 FILLER_12_255
*578 FILLER_12_279
*579 FILLER_12_295
*580 FILLER_12_299
*581 FILLER_12_308
*582 FILLER_12_312
*583 FILLER_12_314
*584 FILLER_12_317
*585 FILLER_12_349
*586 FILLER_12_353
*587 FILLER_12_375
*588 FILLER_12_383
*589 FILLER_12_387
*590 FILLER_12_403
*591 FILLER_12_45
*592 FILLER_12_47
*593 FILLER_12_6
*594 FILLER_13_10
*595 FILLER_13_142
*596 FILLER_13_199
*597 FILLER_13_201
*598 FILLER_13_212
*599 FILLER_13_216
*600 FILLER_13_247
*601 FILLER_13_263
*602 FILLER_13_271
*603 FILLER_13_290
*604 FILLER_13_334
*605 FILLER_13_344
*606 FILLER_13_348
*607 FILLER_13_352
*608 FILLER_13_356
*609 FILLER_13_372
*610 FILLER_13_397
*611 FILLER_13_401
*612 FILLER_13_403
*613 FILLER_13_422
*614 FILLER_13_487
*615 FILLER_13_489
*616 FILLER_13_492
*617 FILLER_13_496
*618 FILLER_13_498
*619 FILLER_13_72
*620 FILLER_13_74
*621 FILLER_13_83
*622 FILLER_14_107
*623 FILLER_14_177
*624 FILLER_14_2
*625 FILLER_14_241
*626 FILLER_14_247
*627 FILLER_14_263
*628 FILLER_14_313
*629 FILLER_14_325
*630 FILLER_14_349
*631 FILLER_14_357
*632 FILLER_14_361
*633 FILLER_14_378
*634 FILLER_14_382
*635 FILLER_14_384
*636 FILLER_14_411
*637 FILLER_14_45
*638 FILLER_14_451
*639 FILLER_14_6
*640 FILLER_15_104
*641 FILLER_15_138
*642 FILLER_15_172
*643 FILLER_15_2
*644 FILLER_15_220
*645 FILLER_15_240
*646 FILLER_15_257
*647 FILLER_15_269
*648 FILLER_15_271
*649 FILLER_15_342
*650 FILLER_15_350
*651 FILLER_15_354
*652 FILLER_15_356
*653 FILLER_15_36
*654 FILLER_15_373
*655 FILLER_15_392
*656 FILLER_15_410
*657 FILLER_15_439
*658 FILLER_15_441
*659 FILLER_15_472
*660 FILLER_15_492
*661 FILLER_15_496
*662 FILLER_15_498
*663 FILLER_15_70
*664 FILLER_1_111
*665 FILLER_1_127
*666 FILLER_1_135
*667 FILLER_1_139
*668 FILLER_1_142
*669 FILLER_1_174
*670 FILLER_1_190
*671 FILLER_1_198
*672 FILLER_1_2
*673 FILLER_1_232
*674 FILLER_1_240
*675 FILLER_1_252
*676 FILLER_1_256
*677 FILLER_1_265
*678 FILLER_1_273
*679 FILLER_1_277
*680 FILLER_1_279
*681 FILLER_1_282
*682 FILLER_1_314
*683 FILLER_1_318
*684 FILLER_1_328
*685 FILLER_1_330
*686 FILLER_1_339
*687 FILLER_1_347
*688 FILLER_1_349
*689 FILLER_1_352
*690 FILLER_1_368
*691 FILLER_1_400
*692 FILLER_1_408
*693 FILLER_1_422
*694 FILLER_1_430
*695 FILLER_1_437
*696 FILLER_1_492
*697 FILLER_1_496
*698 FILLER_1_498
*699 FILLER_1_66
*700 FILLER_1_72
*701 FILLER_1_88
*702 FILLER_1_96
*703 FILLER_2_101
*704 FILLER_2_107
*705 FILLER_2_171
*706 FILLER_2_177
*707 FILLER_2_193
*708 FILLER_2_2
*709 FILLER_2_209
*710 FILLER_2_237
*711 FILLER_2_247
*712 FILLER_2_291
*713 FILLER_2_317
*714 FILLER_2_338
*715 FILLER_2_34
*716 FILLER_2_346
*717 FILLER_2_358
*718 FILLER_2_362
*719 FILLER_2_37
*720 FILLER_2_372
*721 FILLER_2_380
*722 FILLER_2_384
*723 FILLER_2_387
*724 FILLER_2_419
*725 FILLER_2_428
*726 FILLER_2_444
*727 FILLER_2_446
*728 FILLER_3_116
*729 FILLER_3_132
*730 FILLER_3_142
*731 FILLER_3_150
*732 FILLER_3_152
*733 FILLER_3_161
*734 FILLER_3_171
*735 FILLER_3_2
*736 FILLER_3_203
*737 FILLER_3_207
*738 FILLER_3_209
*739 FILLER_3_212
*740 FILLER_3_228
*741 FILLER_3_240
*742 FILLER_3_248
*743 FILLER_3_263
*744 FILLER_3_279
*745 FILLER_3_282
*746 FILLER_3_298
*747 FILLER_3_306
*748 FILLER_3_330
*749 FILLER_3_346
*750 FILLER_3_352
*751 FILLER_3_416
*752 FILLER_3_422
*753 FILLER_3_492
*754 FILLER_3_496
*755 FILLER_3_498
*756 FILLER_3_66
*757 FILLER_3_72
*758 FILLER_3_84
*759 FILLER_4_10
*760 FILLER_4_107
*761 FILLER_4_111
*762 FILLER_4_121
*763 FILLER_4_125
*764 FILLER_4_127
*765 FILLER_4_136
*766 FILLER_4_167
*767 FILLER_4_177
*768 FILLER_4_181
*769 FILLER_4_202
*770 FILLER_4_242
*771 FILLER_4_244
*772 FILLER_4_252
*773 FILLER_4_26
*774 FILLER_4_284
*775 FILLER_4_308
*776 FILLER_4_312
*777 FILLER_4_314
*778 FILLER_4_317
*779 FILLER_4_333
*780 FILLER_4_34
*781 FILLER_4_341
*782 FILLER_4_349
*783 FILLER_4_37
*784 FILLER_4_381
*785 FILLER_4_387
*786 FILLER_4_389
*787 FILLER_4_398
*788 FILLER_4_430
*789 FILLER_4_446
*790 FILLER_4_454
*791 FILLER_4_457
*792 FILLER_4_461
*793 FILLER_4_69
*794 FILLER_4_73
*795 FILLER_4_94
*796 FILLER_4_96
*797 FILLER_5_136
*798 FILLER_5_142
*799 FILLER_5_174
*800 FILLER_5_18
*801 FILLER_5_182
*802 FILLER_5_206
*803 FILLER_5_212
*804 FILLER_5_244
*805 FILLER_5_260
*806 FILLER_5_268
*807 FILLER_5_277
*808 FILLER_5_279
*809 FILLER_5_282
*810 FILLER_5_290
*811 FILLER_5_294
*812 FILLER_5_316
*813 FILLER_5_332
*814 FILLER_5_336
*815 FILLER_5_352
*816 FILLER_5_416
*817 FILLER_5_422
*818 FILLER_5_454
*819 FILLER_5_456
*820 FILLER_5_465
*821 FILLER_5_467
*822 FILLER_5_492
*823 FILLER_5_496
*824 FILLER_5_498
*825 FILLER_5_50
*826 FILLER_5_66
*827 FILLER_5_72
*828 FILLER_5_88
*829 FILLER_5_96
*830 FILLER_6_100
*831 FILLER_6_104
*832 FILLER_6_107
*833 FILLER_6_171
*834 FILLER_6_177
*835 FILLER_6_18
*836 FILLER_6_185
*837 FILLER_6_194
*838 FILLER_6_210
*839 FILLER_6_212
*840 FILLER_6_221
*841 FILLER_6_255
*842 FILLER_6_298
*843 FILLER_6_314
*844 FILLER_6_317
*845 FILLER_6_321
*846 FILLER_6_329
*847 FILLER_6_34
*848 FILLER_6_341
*849 FILLER_6_343
*850 FILLER_6_349
*851 FILLER_6_365
*852 FILLER_6_37
*853 FILLER_6_374
*854 FILLER_6_382
*855 FILLER_6_384
*856 FILLER_6_387
*857 FILLER_6_419
*858 FILLER_6_427
*859 FILLER_6_429
*860 FILLER_6_438
*861 FILLER_6_454
*862 FILLER_6_81
*863 FILLER_6_89
*864 FILLER_6_93
*865 FILLER_6_95
*866 FILLER_7_107
*867 FILLER_7_139
*868 FILLER_7_150
*869 FILLER_7_154
*870 FILLER_7_156
*871 FILLER_7_165
*872 FILLER_7_201
*873 FILLER_7_209
*874 FILLER_7_232
*875 FILLER_7_26
*876 FILLER_7_264
*877 FILLER_7_282
*878 FILLER_7_346
*879 FILLER_7_352
*880 FILLER_7_356
*881 FILLER_7_358
*882 FILLER_7_389
*883 FILLER_7_397
*884 FILLER_7_401
*885 FILLER_7_410
*886 FILLER_7_418
*887 FILLER_7_422
*888 FILLER_7_438
*889 FILLER_7_442
*890 FILLER_7_460
*891 FILLER_7_492
*892 FILLER_7_496
*893 FILLER_7_498
*894 FILLER_7_58
*895 FILLER_7_66
*896 FILLER_7_72
*897 FILLER_7_80
*898 FILLER_7_84
*899 FILLER_7_86
*900 FILLER_8_107
*901 FILLER_8_111
*902 FILLER_8_121
*903 FILLER_8_129
*904 FILLER_8_133
*905 FILLER_8_155
*906 FILLER_8_174
*907 FILLER_8_177
*908 FILLER_8_241
*909 FILLER_8_262
*910 FILLER_8_294
*911 FILLER_8_310
*912 FILLER_8_314
*913 FILLER_8_34
*914 FILLER_8_349
*915 FILLER_8_365
*916 FILLER_8_37
*917 FILLER_8_381
*918 FILLER_8_387
*919 FILLER_8_419
*920 FILLER_8_435
*921 FILLER_8_53
*922 FILLER_8_61
*923 FILLER_8_85
*924 FILLER_8_93
*925 FILLER_8_97
*926 FILLER_8_99
*927 FILLER_9_104
*928 FILLER_9_129
*929 FILLER_9_137
*930 FILLER_9_139
*931 FILLER_9_142
*932 FILLER_9_150
*933 FILLER_9_154
*934 FILLER_9_156
*935 FILLER_9_166
*936 FILLER_9_198
*937 FILLER_9_206
*938 FILLER_9_212
*939 FILLER_9_228
*940 FILLER_9_236
*941 FILLER_9_240
*942 FILLER_9_242
*943 FILLER_9_259
*944 FILLER_9_267
*945 FILLER_9_279
*946 FILLER_9_282
*947 FILLER_9_290
*948 FILLER_9_300
*949 FILLER_9_324
*950 FILLER_9_328
*951 FILLER_9_345
*952 FILLER_9_349
*953 FILLER_9_352
*954 FILLER_9_373
*955 FILLER_9_40
*956 FILLER_9_405
*957 FILLER_9_413
*958 FILLER_9_417
*959 FILLER_9_419
*960 FILLER_9_422
*961 FILLER_9_430
*962 FILLER_9_434
*963 FILLER_9_436
*964 FILLER_9_445
*965 FILLER_9_447
*966 FILLER_9_492
*967 FILLER_9_496
*968 FILLER_9_498
*969 FILLER_9_56
*970 FILLER_9_60
*971 FILLER_9_72
*972 PHY_EDGE_ROW_0_Left_16
*973 PHY_EDGE_ROW_0_Right_0
*974 PHY_EDGE_ROW_10_Left_26
*975 PHY_EDGE_ROW_10_Right_10
*976 PHY_EDGE_ROW_11_Left_27
*977 PHY_EDGE_ROW_11_Right_11
*978 PHY_EDGE_ROW_12_Left_28
*979 PHY_EDGE_ROW_12_Right_12
*980 PHY_EDGE_ROW_13_Left_29
*981 PHY_EDGE_ROW_13_Right_13
*982 PHY_EDGE_ROW_14_Left_30
*983 PHY_EDGE_ROW_14_Right_14
*984 PHY_EDGE_ROW_15_Left_31
*985 PHY_EDGE_ROW_15_Right_15
*986 PHY_EDGE_ROW_1_Left_17
*987 PHY_EDGE_ROW_1_Right_1
*988 PHY_EDGE_ROW_2_Left_18
*989 PHY_EDGE_ROW_2_Right_2
*990 PHY_EDGE_ROW_3_Left_19
*991 PHY_EDGE_ROW_3_Right_3
*992 PHY_EDGE_ROW_4_Left_20
*993 PHY_EDGE_ROW_4_Right_4
*994 PHY_EDGE_ROW_5_Left_21
*995 PHY_EDGE_ROW_5_Right_5
*996 PHY_EDGE_ROW_6_Left_22
*997 PHY_EDGE_ROW_6_Right_6
*998 PHY_EDGE_ROW_7_Left_23
*999 PHY_EDGE_ROW_7_Right_7
*1000 PHY_EDGE_ROW_8_Left_24
*1001 PHY_EDGE_ROW_8_Right_8
*1002 PHY_EDGE_ROW_9_Left_25
*1003 PHY_EDGE_ROW_9_Right_9
*1004 S_WARMBOOT_164
*1005 TAP_TAPCELL_ROW_0_32
*1006 TAP_TAPCELL_ROW_0_33
*1007 TAP_TAPCELL_ROW_0_34
*1008 TAP_TAPCELL_ROW_0_35
*1009 TAP_TAPCELL_ROW_0_36
*1010 TAP_TAPCELL_ROW_0_37
*1011 TAP_TAPCELL_ROW_0_38
*1012 TAP_TAPCELL_ROW_0_39
*1013 TAP_TAPCELL_ROW_0_40
*1014 TAP_TAPCELL_ROW_0_41
*1015 TAP_TAPCELL_ROW_0_42
*1016 TAP_TAPCELL_ROW_0_43
*1017 TAP_TAPCELL_ROW_0_44
*1018 TAP_TAPCELL_ROW_0_45
*1019 TAP_TAPCELL_ROW_10_109
*1020 TAP_TAPCELL_ROW_10_110
*1021 TAP_TAPCELL_ROW_10_111
*1022 TAP_TAPCELL_ROW_10_112
*1023 TAP_TAPCELL_ROW_10_113
*1024 TAP_TAPCELL_ROW_10_114
*1025 TAP_TAPCELL_ROW_10_115
*1026 TAP_TAPCELL_ROW_11_116
*1027 TAP_TAPCELL_ROW_11_117
*1028 TAP_TAPCELL_ROW_11_118
*1029 TAP_TAPCELL_ROW_11_119
*1030 TAP_TAPCELL_ROW_11_120
*1031 TAP_TAPCELL_ROW_11_121
*1032 TAP_TAPCELL_ROW_11_122
*1033 TAP_TAPCELL_ROW_12_123
*1034 TAP_TAPCELL_ROW_12_124
*1035 TAP_TAPCELL_ROW_12_125
*1036 TAP_TAPCELL_ROW_12_126
*1037 TAP_TAPCELL_ROW_12_127
*1038 TAP_TAPCELL_ROW_12_128
*1039 TAP_TAPCELL_ROW_12_129
*1040 TAP_TAPCELL_ROW_13_130
*1041 TAP_TAPCELL_ROW_13_131
*1042 TAP_TAPCELL_ROW_13_132
*1043 TAP_TAPCELL_ROW_13_133
*1044 TAP_TAPCELL_ROW_13_134
*1045 TAP_TAPCELL_ROW_13_135
*1046 TAP_TAPCELL_ROW_13_136
*1047 TAP_TAPCELL_ROW_14_137
*1048 TAP_TAPCELL_ROW_14_138
*1049 TAP_TAPCELL_ROW_14_139
*1050 TAP_TAPCELL_ROW_14_140
*1051 TAP_TAPCELL_ROW_14_141
*1052 TAP_TAPCELL_ROW_14_142
*1053 TAP_TAPCELL_ROW_14_143
*1054 TAP_TAPCELL_ROW_15_144
*1055 TAP_TAPCELL_ROW_15_145
*1056 TAP_TAPCELL_ROW_15_146
*1057 TAP_TAPCELL_ROW_15_147
*1058 TAP_TAPCELL_ROW_15_148
*1059 TAP_TAPCELL_ROW_15_149
*1060 TAP_TAPCELL_ROW_15_150
*1061 TAP_TAPCELL_ROW_15_151
*1062 TAP_TAPCELL_ROW_15_152
*1063 TAP_TAPCELL_ROW_15_153
*1064 TAP_TAPCELL_ROW_15_154
*1065 TAP_TAPCELL_ROW_15_155
*1066 TAP_TAPCELL_ROW_15_156
*1067 TAP_TAPCELL_ROW_15_157
*1068 TAP_TAPCELL_ROW_1_46
*1069 TAP_TAPCELL_ROW_1_47
*1070 TAP_TAPCELL_ROW_1_48
*1071 TAP_TAPCELL_ROW_1_49
*1072 TAP_TAPCELL_ROW_1_50
*1073 TAP_TAPCELL_ROW_1_51
*1074 TAP_TAPCELL_ROW_1_52
*1075 TAP_TAPCELL_ROW_2_53
*1076 TAP_TAPCELL_ROW_2_54
*1077 TAP_TAPCELL_ROW_2_55
*1078 TAP_TAPCELL_ROW_2_56
*1079 TAP_TAPCELL_ROW_2_57
*1080 TAP_TAPCELL_ROW_2_58
*1081 TAP_TAPCELL_ROW_2_59
*1082 TAP_TAPCELL_ROW_3_60
*1083 TAP_TAPCELL_ROW_3_61
*1084 TAP_TAPCELL_ROW_3_62
*1085 TAP_TAPCELL_ROW_3_63
*1086 TAP_TAPCELL_ROW_3_64
*1087 TAP_TAPCELL_ROW_3_65
*1088 TAP_TAPCELL_ROW_3_66
*1089 TAP_TAPCELL_ROW_4_67
*1090 TAP_TAPCELL_ROW_4_68
*1091 TAP_TAPCELL_ROW_4_69
*1092 TAP_TAPCELL_ROW_4_70
*1093 TAP_TAPCELL_ROW_4_71
*1094 TAP_TAPCELL_ROW_4_72
*1095 TAP_TAPCELL_ROW_4_73
*1096 TAP_TAPCELL_ROW_5_74
*1097 TAP_TAPCELL_ROW_5_75
*1098 TAP_TAPCELL_ROW_5_76
*1099 TAP_TAPCELL_ROW_5_77
*1100 TAP_TAPCELL_ROW_5_78
*1101 TAP_TAPCELL_ROW_5_79
*1102 TAP_TAPCELL_ROW_5_80
*1103 TAP_TAPCELL_ROW_6_81
*1104 TAP_TAPCELL_ROW_6_82
*1105 TAP_TAPCELL_ROW_6_83
*1106 TAP_TAPCELL_ROW_6_84
*1107 TAP_TAPCELL_ROW_6_85
*1108 TAP_TAPCELL_ROW_6_86
*1109 TAP_TAPCELL_ROW_6_87
*1110 TAP_TAPCELL_ROW_7_88
*1111 TAP_TAPCELL_ROW_7_89
*1112 TAP_TAPCELL_ROW_7_90
*1113 TAP_TAPCELL_ROW_7_91
*1114 TAP_TAPCELL_ROW_7_92
*1115 TAP_TAPCELL_ROW_7_93
*1116 TAP_TAPCELL_ROW_7_94
*1117 TAP_TAPCELL_ROW_8_100
*1118 TAP_TAPCELL_ROW_8_101
*1119 TAP_TAPCELL_ROW_8_95
*1120 TAP_TAPCELL_ROW_8_96
*1121 TAP_TAPCELL_ROW_8_97
*1122 TAP_TAPCELL_ROW_8_98
*1123 TAP_TAPCELL_ROW_8_99
*1124 TAP_TAPCELL_ROW_9_102
*1125 TAP_TAPCELL_ROW_9_103
*1126 TAP_TAPCELL_ROW_9_104
*1127 TAP_TAPCELL_ROW_9_105
*1128 TAP_TAPCELL_ROW_9_106
*1129 TAP_TAPCELL_ROW_9_107
*1130 TAP_TAPCELL_ROW_9_108
*1131 _043_
*1132 _044_
*1133 _045_
*1134 _046_
*1135 _047_
*1136 _048_
*1137 _049_
*1138 _050_
*1139 _051_
*1140 _052_
*1141 _053_
*1142 _054_
*1143 _055_
*1144 _056_
*1145 _057_
*1146 _058_
*1147 _059_
*1148 _060_
*1149 _061_
*1150 _062_
*1151 _063_
*1152 _064_
*1153 _065_
*1154 _066_
*1155 _067_
*1156 _068_
*1157 _069_
*1158 _070_
*1159 _071_
*1160 _072_
*1161 _073_
*1162 _074_
*1163 _075_
*1164 _076_
*1165 _077_
*1166 _078_
*1167 _079_
*1168 _080_
*1169 _081_
*1170 _082_
*1171 _083_
*1172 _084_
*1173 _085_
*1174 _086_
*1175 _087_
*1176 _088_
*1177 _089_
*1178 _090_
*1179 _091_
*1180 _092_
*1181 _093_
*1182 _094_
*1183 _095_
*1184 _096_
*1185 _097_
*1186 _098_
*1187 _099_
*1188 _100_
*1189 _101_
*1190 _102_
*1191 _103_
*1192 _104_
*1193 _105_
*1194 _106_
*1195 _107_
*1196 _108_
*1197 _109_
*1198 _110_
*1199 _111_
*1200 _112_
*1201 _113_
*1202 _115_
*1203 _116_
*1204 _117_
*1205 _118_
*1206 _119_
*1207 _120_
*1208 _121_
*1209 _122_
*1210 _123_
*1211 _124_
*1212 _125_
*1213 _126_
*1214 _127_
*1215 _128_
*1216 _129_
*1217 _130_
*1218 _131_
*1219 _132_
*1220 _133_
*1221 _134_
*1222 _135_
*1223 _136_
*1224 _137_
*1225 _138_
*1226 _139_
*1227 _140_
*1228 _141_
*1229 _142_
*1230 _143_
*1231 _144_
*1232 _145_
*1233 _146_
*1234 _147_
*1235 _148_
*1236 _149_
*1237 _150_
*1238 _151_
*1239 _152_
*1240 _153_
*1241 _154_
*1242 _155_
*1243 _156_
*1244 _157_
*1245 _158_
*1246 _159_
*1247 _160_
*1248 _161_
*1249 _162_
*1250 _163_
*1251 _164_
*1252 _165_
*1253 _166_
*1254 _167_
*1255 _168_
*1256 _169_
*1257 _170_
*1258 _171_
*1259 _172_
*1260 _173_
*1261 _174_
*1262 _175_
*1263 _176_
*1264 _177_
*1265 _178_
*1266 _179_
*1267 _180_
*1268 _181_
*1269 _182_
*1270 _183_
*1271 _184_
*1272 _185_
*1273 _186_
*1274 _187_
*1275 _188_
*1276 _189_
*1277 _190_
*1278 _191_
*1279 _192_
*1280 _193_
*1281 _194_
*1282 _195_
*1283 _196_
*1284 _197_
*1285 _198_
*1286 _199_
*1287 _200_
*1288 _201_
*1289 _202_
*1290 _203_
*1291 _204_
*1292 _205_
*1293 _206_
*1294 _207_
*1295 _208_
*1296 _209_
*1297 _210_
*1298 _211_
*1299 _212_
*1300 _213_
*1301 _214_
*1302 _215_
*1303 _216_
*1304 _217_
*1305 _218_
*1306 _219_
*1307 fanout5
*1308 fanout6
*1309 input1
*1310 input10
*1311 input11
*1312 input12
*1313 input13
*1314 input14
*1315 input15
*1316 input16
*1317 input17
*1318 input18
*1319 input19
*1320 input2
*1321 input20
*1322 input21
*1323 input22
*1324 input23
*1325 input24
*1326 input25
*1327 input26
*1328 input27
*1329 input28
*1330 input29
*1331 input3
*1332 input30
*1333 input31
*1334 input32
*1335 input33
*1336 input34
*1337 input35
*1338 input36
*1339 input37
*1340 input38
*1341 input39
*1342 input4
*1343 input40
*1344 input41
*1345 input42
*1346 input43
*1347 input44
*1348 input45
*1349 input46
*1350 input47
*1351 input48
*1352 input49
*1353 input5
*1354 input50
*1355 input51
*1356 input52
*1357 input53
*1358 input6
*1359 input7
*1360 input8
*1361 input9
*1362 output100
*1363 output101
*1364 output102
*1365 output103
*1366 output104
*1367 output105
*1368 output106
*1369 output107
*1370 output108
*1371 output109
*1372 output110
*1373 output111
*1374 output112
*1375 output113
*1376 output114
*1377 output115
*1378 output116
*1379 output117
*1380 output118
*1381 output119
*1382 output120
*1383 output121
*1384 output122
*1385 output123
*1386 output124
*1387 output125
*1388 output126
*1389 output127
*1390 output128
*1391 output129
*1392 output130
*1393 output131
*1394 output132
*1395 output133
*1396 output134
*1397 output135
*1398 output136
*1399 output137
*1400 output138
*1401 output139
*1402 output140
*1403 output141
*1404 output142
*1405 output143
*1406 output144
*1407 output145
*1408 output146
*1409 output147
*1410 output148
*1411 output149
*1412 output150
*1413 output151
*1414 output152
*1415 output153
*1416 output154
*1417 output155
*1418 output156
*1419 output157
*1420 output158
*1421 output159
*1422 output160
*1423 output161
*1424 output162
*1425 output163
*1426 output54
*1427 output55
*1428 output56
*1429 output57
*1430 output58
*1431 output59
*1432 output60
*1433 output61
*1434 output62
*1435 output63
*1436 output64
*1437 output65
*1438 output66
*1439 output67
*1440 output68
*1441 output69
*1442 output70
*1443 output71
*1444 output72
*1445 output73
*1446 output74
*1447 output75
*1448 output76
*1449 output77
*1450 output78
*1451 output79
*1452 output80
*1453 output81
*1454 output82
*1455 output83
*1456 output84
*1457 output85
*1458 output86
*1459 output87
*1460 output88
*1461 output89
*1462 output90
*1463 output91
*1464 output92
*1465 output93
*1466 output94
*1467 output95
*1468 output96
*1469 output97
*1470 output98
*1471 output99

*PORTS
BOOT_top O
CONFIGURED_top I
Co O
FrameData[0] I
FrameData[10] I
FrameData[11] I
FrameData[12] I
FrameData[13] I
FrameData[14] I
FrameData[15] I
FrameData[16] I
FrameData[17] I
FrameData[18] I
FrameData[19] I
FrameData[1] I
FrameData[20] I
FrameData[21] I
FrameData[22] I
FrameData[23] I
FrameData[24] I
FrameData[25] I
FrameData[26] I
FrameData[27] I
FrameData[28] I
FrameData[29] I
FrameData[2] I
FrameData[30] I
FrameData[31] I
FrameData[3] I
FrameData[4] I
FrameData[5] I
FrameData[6] I
FrameData[7] I
FrameData[8] I
FrameData[9] I
FrameData_O[0] O
FrameData_O[10] O
FrameData_O[11] O
FrameData_O[12] O
FrameData_O[13] O
FrameData_O[14] O
FrameData_O[15] O
FrameData_O[16] O
FrameData_O[17] O
FrameData_O[18] O
FrameData_O[19] O
FrameData_O[1] O
FrameData_O[20] O
FrameData_O[21] O
FrameData_O[22] O
FrameData_O[23] O
FrameData_O[24] O
FrameData_O[25] O
FrameData_O[26] O
FrameData_O[27] O
FrameData_O[28] O
FrameData_O[29] O
FrameData_O[2] O
FrameData_O[30] O
FrameData_O[31] O
FrameData_O[3] O
FrameData_O[4] O
FrameData_O[5] O
FrameData_O[6] O
FrameData_O[7] O
FrameData_O[8] O
FrameData_O[9] O
FrameStrobe[0] I
FrameStrobe[10] I
FrameStrobe[11] I
FrameStrobe[12] I
FrameStrobe[13] I
FrameStrobe[14] I
FrameStrobe[15] I
FrameStrobe[16] I
FrameStrobe[17] I
FrameStrobe[18] I
FrameStrobe[19] I
FrameStrobe[1] I
FrameStrobe[2] I
FrameStrobe[3] I
FrameStrobe[4] I
FrameStrobe[5] I
FrameStrobe[6] I
FrameStrobe[7] I
FrameStrobe[8] I
FrameStrobe[9] I
FrameStrobe_O[0] O
FrameStrobe_O[10] O
FrameStrobe_O[11] O
FrameStrobe_O[12] O
FrameStrobe_O[13] O
FrameStrobe_O[14] O
FrameStrobe_O[15] O
FrameStrobe_O[16] O
FrameStrobe_O[17] O
FrameStrobe_O[18] O
FrameStrobe_O[19] O
FrameStrobe_O[1] O
FrameStrobe_O[2] O
FrameStrobe_O[3] O
FrameStrobe_O[4] O
FrameStrobe_O[5] O
FrameStrobe_O[6] O
FrameStrobe_O[7] O
FrameStrobe_O[8] O
FrameStrobe_O[9] O
N1BEG[0] O
N1BEG[1] O
N1BEG[2] O
N1BEG[3] O
N2BEG[0] O
N2BEG[1] O
N2BEG[2] O
N2BEG[3] O
N2BEG[4] O
N2BEG[5] O
N2BEG[6] O
N2BEG[7] O
N2BEGb[0] O
N2BEGb[1] O
N2BEGb[2] O
N2BEGb[3] O
N2BEGb[4] O
N2BEGb[5] O
N2BEGb[6] O
N2BEGb[7] O
N4BEG[0] O
N4BEG[10] O
N4BEG[11] O
N4BEG[12] O
N4BEG[13] O
N4BEG[14] O
N4BEG[15] O
N4BEG[1] O
N4BEG[2] O
N4BEG[3] O
N4BEG[4] O
N4BEG[5] O
N4BEG[6] O
N4BEG[7] O
N4BEG[8] O
N4BEG[9] O
NN4BEG[0] O
NN4BEG[10] O
NN4BEG[11] O
NN4BEG[12] O
NN4BEG[13] O
NN4BEG[14] O
NN4BEG[15] O
NN4BEG[1] O
NN4BEG[2] O
NN4BEG[3] O
NN4BEG[4] O
NN4BEG[5] O
NN4BEG[6] O
NN4BEG[7] O
NN4BEG[8] O
NN4BEG[9] O
RESET_top I
S1END[0] I
S1END[1] I
S1END[2] I
S1END[3] I
S2END[0] I
S2END[1] I
S2END[2] I
S2END[3] I
S2END[4] I
S2END[5] I
S2END[6] I
S2END[7] I
S2MID[0] I
S2MID[1] I
S2MID[2] I
S2MID[3] I
S2MID[4] I
S2MID[5] I
S2MID[6] I
S2MID[7] I
S4END[0] I
S4END[10] I
S4END[11] I
S4END[12] I
S4END[13] I
S4END[14] I
S4END[15] I
S4END[1] I
S4END[2] I
S4END[3] I
S4END[4] I
S4END[5] I
S4END[6] I
S4END[7] I
S4END[8] I
S4END[9] I
SLOT_top0 O
SLOT_top1 O
SLOT_top2 O
SLOT_top3 O
SS4END[0] I
SS4END[10] I
SS4END[11] I
SS4END[12] I
SS4END[13] I
SS4END[14] I
SS4END[15] I
SS4END[1] I
SS4END[2] I
SS4END[3] I
SS4END[4] I
SS4END[5] I
SS4END[6] I
SS4END[7] I
SS4END[8] I
SS4END[9] I
UserCLK I
UserCLKo O

*D_NET *1 0.00150754
*CONN
*P BOOT_top O
*I *1426:Z O *D gf180mcu_fd_sc_mcu7t5v0__buf_4
*CAP
1 BOOT_top 0.000491608
2 *1426:Z 0.000491608
3 BOOT_top *1400:I 0.000171156
4 BOOT_top *368:16 0.000342428
5 BOOT_top *409:12 1.07369e-05
*RES
1 *1426:Z BOOT_top 16.88 
*END

*D_NET *2 0.000704397
*CONN
*P CONFIGURED_top I
*I *1309:I I *D gf180mcu_fd_sc_mcu7t5v0__buf_2
*CAP
1 CONFIGURED_top 0.000352198
2 *1309:I 0.000352198
*RES
1 CONFIGURED_top *1309:I 6.736 
*END

*D_NET *3 0.00360641
*CONN
*P Co O
*I *1004:ZN O *D gf180mcu_fd_sc_mcu7t5v0__tiel
*CAP
1 Co 0.000716874
2 *1004:ZN 0.000716874
3 Co NN4BEG[15] 4.22283e-06
4 Co *1323:I 0.000167225
5 Co *1324:I 0.000581884
6 Co *1408:I 0.000537454
7 Co *1410:I 0.000304381
8 Co *1411:I 0.000200593
9 Co *367:50 0.000376905
*RES
1 *1004:ZN Co 19.688 
*END

*D_NET *4 0.0774003
*CONN
*P FrameData[0] I