*SPEF "ieee 1481-1999"
*DESIGN "S_WARMBOOT"
*DATE "23:06:13 Friday December 05, 2025"
*VENDOR "The OpenROAD Project"
*PROGRAM "OpenROAD"
*VERSION "341650e72dad0dc8571822ff8c5d9c5e365327f7"
*DESIGN_FLOW "NAME_SCOPE LOCAL" "PIN_CAP NONE"
*DIVIDER /
*DELIMITER :
*BUS_DELIMITER []
*T_UNIT 1 NS
*C_UNIT 1 PF
*R_UNIT 1 OHM
*L_UNIT 1 HENRY

*NAME_MAP
*1 BOOT_top
*2 CONFIGURED_top
*3 net113
*4 FrameData[0]
*5 FrameData[10]
*6 FrameData[11]
*7 FrameData[12]
*8 FrameData[13]
*9 FrameData[14]
*10 FrameData[15]
*11 FrameData[16]
*12 FrameData[17]
*13 FrameData[18]
*14 FrameData[19]
*15 FrameData[1]
*16 FrameData[20]
*17 FrameData[21]
*18 FrameData[22]
*19 FrameData[23]
*20 FrameData[24]
*21 FrameData[25]
*22 FrameData[26]
*23 FrameData[27]
*24 FrameData[28]
*25 FrameData[29]
*26 FrameData[2]
*27 FrameData[30]
*28 FrameData[31]
*29 FrameData[3]
*30 FrameData[4]
*31 FrameData[5]
*32 FrameData[6]
*33 FrameData[7]
*34 FrameData[8]
*35 FrameData[9]
*36 FrameData_O[0]
*37 FrameData_O[10]
*38 FrameData_O[11]
*39 FrameData_O[12]
*40 FrameData_O[13]
*41 FrameData_O[14]
*42 FrameData_O[15]
*43 FrameData_O[16]
*44 FrameData_O[17]
*45 FrameData_O[18]
*46 FrameData_O[19]
*47 FrameData_O[1]
*48 FrameData_O[20]
*49 FrameData_O[21]
*50 FrameData_O[22]
*51 FrameData_O[23]
*52 FrameData_O[24]
*53 FrameData_O[25]
*54 FrameData_O[26]
*55 FrameData_O[27]
*56 FrameData_O[28]
*57 FrameData_O[29]
*58 FrameData_O[2]
*59 FrameData_O[30]
*60 FrameData_O[31]
*61 FrameData_O[3]
*62 FrameData_O[4]
*63 FrameData_O[5]
*64 FrameData_O[6]
*65 FrameData_O[7]
*66 FrameData_O[8]
*67 FrameData_O[9]
*68 FrameStrobe[0]
*69 FrameStrobe[10]
*70 FrameStrobe[11]
*71 FrameStrobe[12]
*72 FrameStrobe[13]
*73 FrameStrobe[14]
*74 FrameStrobe[15]
*75 FrameStrobe[16]
*76 FrameStrobe[17]
*77 FrameStrobe[18]
*78 FrameStrobe[19]
*79 FrameStrobe[1]
*80 FrameStrobe[2]
*81 FrameStrobe[3]
*82 FrameStrobe[4]
*83 FrameStrobe[5]
*84 FrameStrobe[6]
*85 FrameStrobe[7]
*86 FrameStrobe[8]
*87 FrameStrobe[9]
*88 FrameStrobe_O[0]
*89 FrameStrobe_O[10]
*90 FrameStrobe_O[11]
*91 FrameStrobe_O[12]
*92 FrameStrobe_O[13]
*93 FrameStrobe_O[14]
*94 FrameStrobe_O[15]
*95 FrameStrobe_O[16]
*96 FrameStrobe_O[17]
*97 FrameStrobe_O[18]
*98 FrameStrobe_O[19]
*99 FrameStrobe_O[1]
*100 FrameStrobe_O[2]
*101 FrameStrobe_O[3]
*102 FrameStrobe_O[4]
*103 FrameStrobe_O[5]
*104 FrameStrobe_O[6]
*105 FrameStrobe_O[7]
*106 FrameStrobe_O[8]
*107 FrameStrobe_O[9]
*108 N1BEG[0]
*109 N1BEG[1]
*110 N1BEG[2]
*111 N1BEG[3]
*112 N2BEG[0]
*113 N2BEG[1]
*114 N2BEG[2]
*115 N2BEG[3]
*116 N2BEG[4]
*117 N2BEG[5]
*118 N2BEG[6]
*119 N2BEG[7]
*120 N2BEGb[0]
*121 N2BEGb[1]
*122 N2BEGb[2]
*123 N2BEGb[3]
*124 N2BEGb[4]
*125 N2BEGb[5]
*126 N2BEGb[6]
*127 N2BEGb[7]
*128 N4BEG[0]
*129 N4BEG[10]
*130 N4BEG[11]
*131 N4BEG[12]
*132 N4BEG[13]
*133 N4BEG[14]
*134 N4BEG[15]
*135 N4BEG[1]
*136 N4BEG[2]
*137 N4BEG[3]
*138 N4BEG[4]
*139 N4BEG[5]
*140 N4BEG[6]
*141 N4BEG[7]
*142 N4BEG[8]
*143 N4BEG[9]
*144 NN4BEG[0]
*145 NN4BEG[10]
*146 NN4BEG[11]
*147 NN4BEG[12]
*148 NN4BEG[13]
*149 NN4BEG[14]
*150 NN4BEG[15]
*151 NN4BEG[1]
*152 NN4BEG[2]
*153 NN4BEG[3]
*154 NN4BEG[4]
*155 NN4BEG[5]
*156 NN4BEG[6]
*157 NN4BEG[7]
*158 NN4BEG[8]
*159 NN4BEG[9]
*160 RESET_top
*161 S1END[0]
*162 S1END[1]
*163 S1END[2]
*164 S1END[3]
*165 S2END[0]
*166 S2END[1]
*167 S2END[2]
*168 S2END[3]
*169 S2END[4]
*170 S2END[5]
*171 S2END[6]
*172 S2END[7]
*173 S2MID[0]
*174 S2MID[1]
*175 S2MID[2]
*176 S2MID[3]
*177 S2MID[4]
*178 S2MID[5]
*179 S2MID[6]
*180 S2MID[7]
*181 S4END[0]
*182 S4END[10]
*183 S4END[11]
*184 S4END[12]
*185 S4END[13]
*186 S4END[14]
*187 S4END[15]
*188 S4END[1]
*189 S4END[2]
*190 S4END[3]
*191 S4END[4]
*192 S4END[5]
*193 S4END[6]
*194 S4END[7]
*195 S4END[8]
*196 S4END[9]
*197 SLOT_top0
*198 SLOT_top1
*199 SLOT_top2
*200 SLOT_top3
*201 SS4END[0]
*202 SS4END[10]
*203 SS4END[11]
*204 SS4END[12]
*205 SS4END[13]
*206 SS4END[14]
*207 SS4END[15]
*208 SS4END[1]
*209 SS4END[2]
*210 SS4END[3]
*211 SS4END[4]
*212 SS4END[5]
*213 SS4END[6]
*214 SS4END[7]
*215 SS4END[8]
*216 SS4END[9]
*217 UserCLK
*218 UserCLKo
*221 Inst_S_WARMBOOT_ConfigMem\.Inst_frame0_bit13\.Q
*222 Inst_S_WARMBOOT_ConfigMem\.Inst_frame0_bit14\.Q
*223 Inst_S_WARMBOOT_ConfigMem\.Inst_frame0_bit15\.Q
*224 Inst_S_WARMBOOT_ConfigMem\.Inst_frame0_bit16\.Q
*225 Inst_S_WARMBOOT_ConfigMem\.Inst_frame0_bit17\.Q
*226 Inst_S_WARMBOOT_ConfigMem\.Inst_frame0_bit18\.Q
*227 Inst_S_WARMBOOT_ConfigMem\.Inst_frame0_bit19\.Q
*228 Inst_S_WARMBOOT_ConfigMem\.Inst_frame0_bit20\.Q
*229 Inst_S_WARMBOOT_ConfigMem\.Inst_frame0_bit21\.Q
*230 Inst_S_WARMBOOT_ConfigMem\.Inst_frame0_bit22\.Q
*231 Inst_S_WARMBOOT_ConfigMem\.Inst_frame0_bit23\.Q
*232 Inst_S_WARMBOOT_ConfigMem\.Inst_frame0_bit24\.Q
*233 Inst_S_WARMBOOT_ConfigMem\.Inst_frame0_bit25\.Q
*234 Inst_S_WARMBOOT_ConfigMem\.Inst_frame0_bit26\.Q
*235 Inst_S_WARMBOOT_ConfigMem\.Inst_frame0_bit27\.Q
*236 Inst_S_WARMBOOT_ConfigMem\.Inst_frame0_bit28\.Q
*237 Inst_S_WARMBOOT_ConfigMem\.Inst_frame0_bit29\.Q
*238 Inst_S_WARMBOOT_ConfigMem\.Inst_frame0_bit30\.Q
*239 Inst_S_WARMBOOT_ConfigMem\.Inst_frame0_bit31\.Q
*240 Inst_S_WARMBOOT_switch_matrix\.N1BEG0
*241 Inst_S_WARMBOOT_switch_matrix\.N1BEG1
*242 Inst_S_WARMBOOT_switch_matrix\.N1BEG2
*243 Inst_S_WARMBOOT_switch_matrix\.N1BEG3
*244 _000_
*245 _001_
*246 _002_
*247 _003_
*248 _004_
*249 _005_
*250 _006_
*251 _007_
*252 _008_
*253 _009_
*254 _010_
*255 _011_
*256 _012_
*257 _013_
*258 _014_
*259 _015_
*260 _016_
*261 _017_
*262 _018_
*263 _019_
*264 _020_
*265 _021_
*266 _022_
*267 _023_
*268 _024_
*269 _025_
*270 _026_
*271 _027_
*272 _028_
*273 _029_
*274 _030_
*275 _031_
*276 _032_
*277 _033_
*278 _034_
*279 _035_
*280 _036_
*281 _037_
*282 _038_
*283 _039_
*284 _040_
*285 _041_
*286 _042_
*287 net1
*288 net10
*289 net100
*290 net101
*291 net102
*292 net103
*293 net104
*294 net105
*295 net106
*296 net107
*297 net108
*298 net109
*299 net11
*300 net110
*301 net111
*302 net112
*303 net12
*304 net13
*305 net14
*306 net15
*307 net16
*308 net17
*309 net18
*310 net19
*311 net2
*312 net20
*313 net21
*314 net22
*315 net23
*316 net24
*317 net25
*318 net26
*319 net27
*320 net28
*321 net29
*322 net3
*323 net30
*324 net31
*325 net32
*326 net33
*327 net34
*328 net35
*329 net36
*330 net37
*331 net38
*332 net39
*333 net4
*334 net40
*335 net41
*336 net42
*337 net43
*338 net44
*339 net45
*340 net46
*341 net47
*342 net48
*343 net49
*344 net5
*345 net50
*346 net51
*347 net52
*348 net53
*349 net54
*350 net55
*351 net56
*352 net57
*353 net58
*354 net59
*355 net6
*356 net60
*357 net61
*358 net62
*359 net63
*360 net64
*361 net65
*362 net66
*363 net67
*364 net68
*365 net69
*366 net7
*367 net70
*368 net71
*369 net72
*370 net73
*371 net74
*372 net75
*373 net76
*374 net77
*375 net78
*376 net79
*377 net8
*378 net80
*379 net81
*380 net82
*381 net83
*382 net84
*383 net85
*384 net86
*385 net87
*386 net88
*387 net89
*388 net9
*389 net90
*390 net91
*391 net92
*392 net93
*393 net94
*394 net95
*395 net96
*396 net97
*397 net98
*398 net99
*399 ANTENNA__045__I
*400 ANTENNA__054__I0
*401 ANTENNA__054__I1
*402 ANTENNA__056__I0
*403 ANTENNA__056__I1
*404 ANTENNA__058__I0
*405 ANTENNA__058__I1
*406 ANTENNA__059__I0
*407 ANTENNA__059__I1
*408 ANTENNA__063__I0
*409 ANTENNA__063__I1
*410 ANTENNA__064__I0
*411 ANTENNA__064__I1
*412 ANTENNA__067__I0
*413 ANTENNA__067__I1
*414 ANTENNA__067__I2
*415 ANTENNA__067__I3
*416 ANTENNA__070__I0
*417 ANTENNA__070__I1
*418 ANTENNA__071__I0
*419 ANTENNA__071__I1
*420 ANTENNA__074__I0
*421 ANTENNA__074__I1
*422 ANTENNA__074__I2
*423 ANTENNA__074__I3
*424 ANTENNA__077__I0
*425 ANTENNA__077__I1
*426 ANTENNA__078__I0
*427 ANTENNA__078__I1
*428 ANTENNA__081__I0
*429 ANTENNA__081__I1
*430 ANTENNA__081__I2
*431 ANTENNA__081__I3
*432 ANTENNA__084__I0
*433 ANTENNA__084__I1
*434 ANTENNA__085__I0
*435 ANTENNA__085__I1
*436 ANTENNA__088__I0
*437 ANTENNA__088__I1
*438 ANTENNA__088__I2
*439 ANTENNA__088__I3
*440 ANTENNA__091__I0
*441 ANTENNA__091__I1
*442 ANTENNA__092__I0
*443 ANTENNA__092__I1
*444 ANTENNA__093__I0
*445 ANTENNA__093__I1
*446 ANTENNA__094__I0
*447 ANTENNA__094__I1
*448 ANTENNA__095__D
*449 ANTENNA__096__D
*450 ANTENNA__097__D
*451 ANTENNA__098__D
*452 ANTENNA__099__D
*453 ANTENNA__100__D
*454 ANTENNA__101__D
*455 ANTENNA__102__D
*456 ANTENNA__103__D
*457 ANTENNA__104__D
*458 ANTENNA__105__D
*459 ANTENNA__106__D
*460 ANTENNA__107__D
*461 ANTENNA__108__D
*462 ANTENNA__109__D
*463 ANTENNA__110__D
*464 ANTENNA__111__D
*465 ANTENNA__112__D
*466 ANTENNA__113__D
*467 ANTENNA__115__I
*468 ANTENNA__116__I
*469 ANTENNA__117__I
*470 ANTENNA__118__I
*471 ANTENNA__119__I
*472 ANTENNA__120__I
*473 ANTENNA__121__I
*474 ANTENNA__122__I
*475 ANTENNA__123__I
*476 ANTENNA__124__I
*477 ANTENNA__125__I
*478 ANTENNA__126__I
*479 ANTENNA__127__I
*480 ANTENNA__128__I
*481 ANTENNA__129__I
*482 ANTENNA__130__I
*483 ANTENNA__131__I
*484 ANTENNA__132__I
*485 ANTENNA__133__I
*486 ANTENNA__134__I
*487 ANTENNA__135__I
*488 ANTENNA__136__I
*489 ANTENNA__137__I
*490 ANTENNA__138__I
*491 ANTENNA__139__I
*492 ANTENNA__140__I
*493 ANTENNA__141__I
*494 ANTENNA__142__I
*495 ANTENNA__143__I
*496 ANTENNA__144__I
*497 ANTENNA__145__I
*498 ANTENNA__146__I
*499 ANTENNA__148__I
*500 ANTENNA__149__I
*501 ANTENNA__150__I
*502 ANTENNA__151__I
*503 ANTENNA__152__I
*504 ANTENNA__153__I
*505 ANTENNA__154__I
*506 ANTENNA__155__I
*507 ANTENNA__156__I
*508 ANTENNA__157__I
*509 ANTENNA__158__I
*510 ANTENNA__159__I
*511 ANTENNA__160__I
*512 ANTENNA__161__I
*513 ANTENNA__162__I
*514 ANTENNA__163__I
*515 ANTENNA__164__I
*516 ANTENNA__165__I
*517 ANTENNA__166__I
*518 ANTENNA__171__I
*519 ANTENNA__172__I
*520 ANTENNA__173__I
*521 ANTENNA__174__I
*522 ANTENNA__175__I
*523 ANTENNA__176__I
*524 ANTENNA__177__I
*525 ANTENNA__178__I
*526 ANTENNA__179__I
*527 ANTENNA__180__I
*528 ANTENNA__181__I
*529 ANTENNA__182__I
*530 ANTENNA__183__I
*531 ANTENNA__184__I
*532 ANTENNA__185__I
*533 ANTENNA__186__I
*534 ANTENNA__187__I
*535 ANTENNA__188__I
*536 ANTENNA__189__I
*537 ANTENNA__190__I
*538 ANTENNA__191__I
*539 ANTENNA__192__I
*540 ANTENNA__193__I
*541 ANTENNA__194__I
*542 ANTENNA__195__I
*543 ANTENNA__196__I
*544 ANTENNA__197__I
*545 ANTENNA__198__I
*546 ANTENNA__199__I
*547 ANTENNA__200__I
*548 ANTENNA__201__I
*549 ANTENNA__202__I
*550 ANTENNA__203__I
*551 ANTENNA__204__I
*552 ANTENNA__205__I
*553 ANTENNA__206__I
*554 ANTENNA__207__I
*555 ANTENNA__208__I
*556 ANTENNA__209__I
*557 ANTENNA__210__I
*558 ANTENNA__211__I
*559 ANTENNA__212__I
*560 ANTENNA__213__I
*561 ANTENNA__214__I
*562 ANTENNA__215__I
*563 ANTENNA__216__I
*564 ANTENNA__217__I
*565 ANTENNA__218__I
*566 ANTENNA__219__I
*567 ANTENNA_fanout5_I
*568 ANTENNA_fanout6_I
*569 FILLER_0_101
*570 FILLER_0_104
*571 FILLER_0_112
*572 FILLER_0_114
*573 FILLER_0_129
*574 FILLER_0_133
*575 FILLER_0_135
*576 FILLER_0_138
*577 FILLER_0_172
*578 FILLER_0_2
*579 FILLER_0_206
*580 FILLER_0_212
*581 FILLER_0_216
*582 FILLER_0_218
*583 FILLER_0_229
*584 FILLER_0_237
*585 FILLER_0_240
*586 FILLER_0_274
*587 FILLER_0_308
*588 FILLER_0_342
*589 FILLER_0_36
*590 FILLER_0_376
*591 FILLER_0_410
*592 FILLER_0_426
*593 FILLER_0_434
*594 FILLER_0_438
*595 FILLER_0_478
*596 FILLER_0_482
*597 FILLER_0_484
*598 FILLER_0_70
*599 FILLER_0_78
*600 FILLER_0_93
*601 FILLER_10_107
*602 FILLER_10_120
*603 FILLER_10_152
*604 FILLER_10_164
*605 FILLER_10_172
*606 FILLER_10_174
*607 FILLER_10_177
*608 FILLER_10_179
*609 FILLER_10_19
*610 FILLER_10_2
*611 FILLER_10_220
*612 FILLER_10_228
*613 FILLER_10_230
*614 FILLER_10_239
*615 FILLER_10_243
*616 FILLER_10_247
*617 FILLER_10_253
*618 FILLER_10_261
*619 FILLER_10_265
*620 FILLER_10_267
*621 FILLER_10_27
*622 FILLER_10_309
*623 FILLER_10_31
*624 FILLER_10_325
*625 FILLER_10_329
*626 FILLER_10_341
*627 FILLER_10_345
*628 FILLER_10_354
*629 FILLER_10_360
*630 FILLER_10_387
*631 FILLER_10_395
*632 FILLER_10_4
*633 FILLER_10_407
*634 FILLER_10_45
*635 FILLER_10_77
*636 FILLER_10_89
*637 FILLER_11_103
*638 FILLER_11_105
*639 FILLER_11_116
*640 FILLER_11_131
*641 FILLER_11_139
*642 FILLER_11_142
*643 FILLER_11_146
*644 FILLER_11_168
*645 FILLER_11_172
*646 FILLER_11_184
*647 FILLER_11_195
*648 FILLER_11_199
*649 FILLER_11_2
*650 FILLER_11_201
*651 FILLER_11_214
*652 FILLER_11_222
*653 FILLER_11_23
*654 FILLER_11_245
*655 FILLER_11_253
*656 FILLER_11_257
*657 FILLER_11_269
*658 FILLER_11_27
*659 FILLER_11_277
*660 FILLER_11_279
*661 FILLER_11_282
*662 FILLER_11_346
*663 FILLER_11_352
*664 FILLER_11_368
*665 FILLER_11_376
*666 FILLER_11_392
*667 FILLER_11_400
*668 FILLER_11_404
*669 FILLER_11_415
*670 FILLER_11_419
*671 FILLER_11_422
*672 FILLER_11_43
*673 FILLER_11_47
*674 FILLER_11_492
*675 FILLER_11_496
*676 FILLER_11_498
*677 FILLER_11_6
*678 FILLER_11_63
*679 FILLER_11_67
*680 FILLER_11_69
*681 FILLER_11_72
*682 FILLER_11_8
*683 FILLER_12_104
*684 FILLER_12_109
*685 FILLER_12_179
*686 FILLER_12_195
*687 FILLER_12_2
*688 FILLER_12_203
*689 FILLER_12_207
*690 FILLER_12_209
*691 FILLER_12_212
*692 FILLER_12_220
*693 FILLER_12_222
*694 FILLER_12_247
*695 FILLER_12_255
*696 FILLER_12_279
*697 FILLER_12_295
*698 FILLER_12_297
*699 FILLER_12_308
*700 FILLER_12_312
*701 FILLER_12_314
*702 FILLER_12_317
*703 FILLER_12_349
*704 FILLER_12_353
*705 FILLER_12_37
*706 FILLER_12_379
*707 FILLER_12_383
*708 FILLER_12_387
*709 FILLER_12_403
*710 FILLER_12_407
*711 FILLER_12_412
*712 FILLER_12_45
*713 FILLER_12_47
*714 FILLER_12_6
*715 FILLER_13_142
*716 FILLER_13_199
*717 FILLER_13_2
*718 FILLER_13_220
*719 FILLER_13_222
*720 FILLER_13_249
*721 FILLER_13_265
*722 FILLER_13_273
*723 FILLER_13_277
*724 FILLER_13_279
*725 FILLER_13_284
*726 FILLER_13_292
*727 FILLER_13_318
*728 FILLER_13_344
*729 FILLER_13_348
*730 FILLER_13_352
*731 FILLER_13_356
*732 FILLER_13_376
*733 FILLER_13_392
*734 FILLER_13_398
*735 FILLER_13_422
*736 FILLER_13_489
*737 FILLER_13_492
*738 FILLER_13_496
*739 FILLER_13_498
*740 FILLER_13_72
*741 FILLER_13_83
*742 FILLER_14_107
*743 FILLER_14_2
*744 FILLER_14_215
*745 FILLER_14_241
*746 FILLER_14_247
*747 FILLER_14_263
*748 FILLER_14_289
*749 FILLER_14_305
*750 FILLER_14_313
*751 FILLER_14_325
*752 FILLER_14_349
*753 FILLER_14_357
*754 FILLER_14_361
*755 FILLER_14_378
*756 FILLER_14_382
*757 FILLER_14_384
*758 FILLER_14_387
*759 FILLER_14_406
*760 FILLER_14_451
*761 FILLER_14_47
*762 FILLER_14_6
*763 FILLER_15_104
*764 FILLER_15_138
*765 FILLER_15_172
*766 FILLER_15_2
*767 FILLER_15_224
*768 FILLER_15_227
*769 FILLER_15_235
*770 FILLER_15_237
*771 FILLER_15_240
*772 FILLER_15_284
*773 FILLER_15_300
*774 FILLER_15_304
*775 FILLER_15_308
*776 FILLER_15_342
*777 FILLER_15_358
*778 FILLER_15_36
*779 FILLER_15_366
*780 FILLER_15_372
*781 FILLER_15_376
*782 FILLER_15_392
*783 FILLER_15_410
*784 FILLER_15_439
*785 FILLER_15_472
*786 FILLER_15_492
*787 FILLER_15_496
*788 FILLER_15_498
*789 FILLER_15_70
*790 FILLER_1_111
*791 FILLER_1_127
*792 FILLER_1_135
*793 FILLER_1_139
*794 FILLER_1_142
*795 FILLER_1_174
*796 FILLER_1_190
*797 FILLER_1_198
*798 FILLER_1_2
*799 FILLER_1_232
*800 FILLER_1_240
*801 FILLER_1_254
*802 FILLER_1_256
*803 FILLER_1_267
*804 FILLER_1_275
*805 FILLER_1_279
*806 FILLER_1_284
*807 FILLER_1_328
*808 FILLER_1_330
*809 FILLER_1_341
*810 FILLER_1_349
*811 FILLER_1_352
*812 FILLER_1_356
*813 FILLER_1_368
*814 FILLER_1_400
*815 FILLER_1_408
*816 FILLER_1_422
*817 FILLER_1_426
*818 FILLER_1_428
*819 FILLER_1_437
*820 FILLER_1_492
*821 FILLER_1_496
*822 FILLER_1_498
*823 FILLER_1_66
*824 FILLER_1_72
*825 FILLER_1_88
*826 FILLER_1_96
*827 FILLER_2_101
*828 FILLER_2_107
*829 FILLER_2_171
*830 FILLER_2_177
*831 FILLER_2_181
*832 FILLER_2_193
*833 FILLER_2_2
*834 FILLER_2_209
*835 FILLER_2_213
*836 FILLER_2_237
*837 FILLER_2_293
*838 FILLER_2_301
*839 FILLER_2_317
*840 FILLER_2_338
*841 FILLER_2_34
*842 FILLER_2_346
*843 FILLER_2_358
*844 FILLER_2_362
*845 FILLER_2_37
*846 FILLER_2_374
*847 FILLER_2_382
*848 FILLER_2_384
*849 FILLER_2_387
*850 FILLER_2_403
*851 FILLER_2_411
*852 FILLER_2_415
*853 FILLER_2_417
*854 FILLER_2_428
*855 FILLER_2_444
*856 FILLER_3_116
*857 FILLER_3_132
*858 FILLER_3_142
*859 FILLER_3_150
*860 FILLER_3_152
*861 FILLER_3_173
*862 FILLER_3_2
*863 FILLER_3_205
*864 FILLER_3_209
*865 FILLER_3_212
*866 FILLER_3_228
*867 FILLER_3_240
*868 FILLER_3_248
*869 FILLER_3_263
*870 FILLER_3_279
*871 FILLER_3_282
*872 FILLER_3_285
*873 FILLER_3_301
*874 FILLER_3_305
*875 FILLER_3_307
*876 FILLER_3_330
*877 FILLER_3_346
*878 FILLER_3_352
*879 FILLER_3_416
*880 FILLER_3_422
*881 FILLER_3_438
*882 FILLER_3_446
*883 FILLER_3_450
*884 FILLER_3_492
*885 FILLER_3_496
*886 FILLER_3_498
*887 FILLER_3_66
*888 FILLER_3_72
*889 FILLER_3_84
*890 FILLER_4_109
*891 FILLER_4_123
*892 FILLER_4_127
*893 FILLER_4_140
*894 FILLER_4_148
*895 FILLER_4_171
*896 FILLER_4_177
*897 FILLER_4_179
*898 FILLER_4_2
*899 FILLER_4_202
*900 FILLER_4_242
*901 FILLER_4_244
*902 FILLER_4_252
*903 FILLER_4_284
*904 FILLER_4_292
*905 FILLER_4_296
*906 FILLER_4_308
*907 FILLER_4_312
*908 FILLER_4_314
*909 FILLER_4_317
*910 FILLER_4_333
*911 FILLER_4_34
*912 FILLER_4_341
*913 FILLER_4_349
*914 FILLER_4_37
*915 FILLER_4_381
*916 FILLER_4_387
*917 FILLER_4_398
*918 FILLER_4_430
*919 FILLER_4_434
*920 FILLER_4_446
*921 FILLER_4_454
*922 FILLER_4_457
*923 FILLER_4_69
*924 FILLER_4_71
*925 FILLER_4_94
*926 FILLER_4_96
*927 FILLER_5_144
*928 FILLER_5_176
*929 FILLER_5_180
*930 FILLER_5_2
*931 FILLER_5_208
*932 FILLER_5_212
*933 FILLER_5_228
*934 FILLER_5_232
*935 FILLER_5_240
*936 FILLER_5_244
*937 FILLER_5_249
*938 FILLER_5_265
*939 FILLER_5_277
*940 FILLER_5_284
*941 FILLER_5_292
*942 FILLER_5_316
*943 FILLER_5_332
*944 FILLER_5_336
*945 FILLER_5_34
*946 FILLER_5_352
*947 FILLER_5_416
*948 FILLER_5_422
*949 FILLER_5_454
*950 FILLER_5_465
*951 FILLER_5_492
*952 FILLER_5_496
*953 FILLER_5_498
*954 FILLER_5_50
*955 FILLER_5_58
*956 FILLER_5_61
*957 FILLER_5_69
*958 FILLER_5_72
*959 FILLER_5_88
*960 FILLER_5_96
*961 FILLER_6_100
*962 FILLER_6_104
*963 FILLER_6_107
*964 FILLER_6_171
*965 FILLER_6_177
*966 FILLER_6_181
*967 FILLER_6_183
*968 FILLER_6_194
*969 FILLER_6_2
*970 FILLER_6_210
*971 FILLER_6_221
*972 FILLER_6_257
*973 FILLER_6_298
*974 FILLER_6_314
*975 FILLER_6_317
*976 FILLER_6_321
*977 FILLER_6_329
*978 FILLER_6_34
*979 FILLER_6_341
*980 FILLER_6_343
*981 FILLER_6_349
*982 FILLER_6_357
*983 FILLER_6_361
*984 FILLER_6_363
*985 FILLER_6_37
*986 FILLER_6_376
*987 FILLER_6_384
*988 FILLER_6_387
*989 FILLER_6_419
*990 FILLER_6_427
*991 FILLER_6_438
*992 FILLER_6_446
*993 FILLER_6_45
*994 FILLER_6_452
*995 FILLER_6_454
*996 FILLER_6_49
*997 FILLER_6_81
*998 FILLER_6_89
*999 FILLER_6_93
*1000 FILLER_6_95
*1001 FILLER_7_107
*1002 FILLER_7_123
*1003 FILLER_7_131
*1004 FILLER_7_135
*1005 FILLER_7_137
*1006 FILLER_7_150
*1007 FILLER_7_154
*1008 FILLER_7_156
*1009 FILLER_7_165
*1010 FILLER_7_173
*1011 FILLER_7_177
*1012 FILLER_7_2
*1013 FILLER_7_201
*1014 FILLER_7_205
*1015 FILLER_7_207
*1016 FILLER_7_232
*1017 FILLER_7_264
*1018 FILLER_7_282
*1019 FILLER_7_314
*1020 FILLER_7_317
*1021 FILLER_7_349
*1022 FILLER_7_352
*1023 FILLER_7_354
*1024 FILLER_7_389
*1025 FILLER_7_397
*1026 FILLER_7_399
*1027 FILLER_7_410
*1028 FILLER_7_418
*1029 FILLER_7_422
*1030 FILLER_7_438
*1031 FILLER_7_460
*1032 FILLER_7_492
*1033 FILLER_7_496
*1034 FILLER_7_498
*1035 FILLER_7_66
*1036 FILLER_7_72
*1037 FILLER_7_80
*1038 FILLER_7_84
*1039 FILLER_7_86
*1040 FILLER_8_107
*1041 FILLER_8_111
*1042 FILLER_8_127
*1043 FILLER_8_131
*1044 FILLER_8_155
*1045 FILLER_8_174
*1046 FILLER_8_177
*1047 FILLER_8_2
*1048 FILLER_8_241
*1049 FILLER_8_266
*1050 FILLER_8_298
*1051 FILLER_8_301
*1052 FILLER_8_34
*1053 FILLER_8_349
*1054 FILLER_8_365
*1055 FILLER_8_37
*1056 FILLER_8_381
*1057 FILLER_8_387
*1058 FILLER_8_419
*1059 FILLER_8_435
*1060 FILLER_8_53
*1061 FILLER_8_61
*1062 FILLER_8_85
*1063 FILLER_8_93
*1064 FILLER_8_97
*1065 FILLER_8_99
*1066 FILLER_9_131
*1067 FILLER_9_139
*1068 FILLER_9_142
*1069 FILLER_9_150
*1070 FILLER_9_154
*1071 FILLER_9_156
*1072 FILLER_9_16
*1073 FILLER_9_166
*1074 FILLER_9_198
*1075 FILLER_9_206
*1076 FILLER_9_212
*1077 FILLER_9_228
*1078 FILLER_9_236
*1079 FILLER_9_240
*1080 FILLER_9_242
*1081 FILLER_9_261
*1082 FILLER_9_269
*1083 FILLER_9_279
*1084 FILLER_9_282
*1085 FILLER_9_300
*1086 FILLER_9_324
*1087 FILLER_9_345
*1088 FILLER_9_349
*1089 FILLER_9_352
*1090 FILLER_9_373
*1091 FILLER_9_405
*1092 FILLER_9_413
*1093 FILLER_9_417
*1094 FILLER_9_419
*1095 FILLER_9_422
*1096 FILLER_9_430
*1097 FILLER_9_433
*1098 FILLER_9_447
*1099 FILLER_9_48
*1100 FILLER_9_492
*1101 FILLER_9_496
*1102 FILLER_9_498
*1103 FILLER_9_56
*1104 FILLER_9_72
*1105 PHY_EDGE_ROW_0_Left_16
*1106 PHY_EDGE_ROW_0_Right_0
*1107 PHY_EDGE_ROW_10_Left_26
*1108 PHY_EDGE_ROW_10_Right_10
*1109 PHY_EDGE_ROW_11_Left_27
*1110 PHY_EDGE_ROW_11_Right_11
*1111 PHY_EDGE_ROW_12_Left_28
*1112 PHY_EDGE_ROW_12_Right_12
*1113 PHY_EDGE_ROW_13_Left_29
*1114 PHY_EDGE_ROW_13_Right_13
*1115 PHY_EDGE_ROW_14_Left_30
*1116 PHY_EDGE_ROW_14_Right_14
*1117 PHY_EDGE_ROW_15_Left_31
*1118 PHY_EDGE_ROW_15_Right_15
*1119 PHY_EDGE_ROW_1_Left_17
*1120 PHY_EDGE_ROW_1_Right_1
*1121 PHY_EDGE_ROW_2_Left_18
*1122 PHY_EDGE_ROW_2_Right_2
*1123 PHY_EDGE_ROW_3_Left_19
*1124 PHY_EDGE_ROW_3_Right_3
*1125 PHY_EDGE_ROW_4_Left_20
*1126 PHY_EDGE_ROW_4_Right_4
*1127 PHY_EDGE_ROW_5_Left_21
*1128 PHY_EDGE_ROW_5_Right_5
*1129 PHY_EDGE_ROW_6_Left_22
*1130 PHY_EDGE_ROW_6_Right_6
*1131 PHY_EDGE_ROW_7_Left_23
*1132 PHY_EDGE_ROW_7_Right_7
*1133 PHY_EDGE_ROW_8_Left_24
*1134 PHY_EDGE_ROW_8_Right_8
*1135 PHY_EDGE_ROW_9_Left_25
*1136 PHY_EDGE_ROW_9_Right_9
*1137 S_WARMBOOT_111
*1138 TAP_TAPCELL_ROW_0_32
*1139 TAP_TAPCELL_ROW_0_33
*1140 TAP_TAPCELL_ROW_0_34
*1141 TAP_TAPCELL_ROW_0_35
*1142 TAP_TAPCELL_ROW_0_36
*1143 TAP_TAPCELL_ROW_0_37
*1144 TAP_TAPCELL_ROW_0_38
*1145 TAP_TAPCELL_ROW_0_39
*1146 TAP_TAPCELL_ROW_0_40
*1147 TAP_TAPCELL_ROW_0_41
*1148 TAP_TAPCELL_ROW_0_42
*1149 TAP_TAPCELL_ROW_0_43
*1150 TAP_TAPCELL_ROW_0_44
*1151 TAP_TAPCELL_ROW_0_45
*1152 TAP_TAPCELL_ROW_10_109
*1153 TAP_TAPCELL_ROW_10_110
*1154 TAP_TAPCELL_ROW_10_111
*1155 TAP_TAPCELL_ROW_10_112
*1156 TAP_TAPCELL_ROW_10_113
*1157 TAP_TAPCELL_ROW_10_114
*1158 TAP_TAPCELL_ROW_10_115
*1159 TAP_TAPCELL_ROW_11_116
*1160 TAP_TAPCELL_ROW_11_117
*1161 TAP_TAPCELL_ROW_11_118
*1162 TAP_TAPCELL_ROW_11_119
*1163 TAP_TAPCELL_ROW_11_120
*1164 TAP_TAPCELL_ROW_11_121
*1165 TAP_TAPCELL_ROW_11_122
*1166 TAP_TAPCELL_ROW_12_123
*1167 TAP_TAPCELL_ROW_12_124
*1168 TAP_TAPCELL_ROW_12_125
*1169 TAP_TAPCELL_ROW_12_126
*1170 TAP_TAPCELL_ROW_12_127
*1171 TAP_TAPCELL_ROW_12_128
*1172 TAP_TAPCELL_ROW_12_129
*1173 TAP_TAPCELL_ROW_13_130
*1174 TAP_TAPCELL_ROW_13_131
*1175 TAP_TAPCELL_ROW_13_132
*1176 TAP_TAPCELL_ROW_13_133
*1177 TAP_TAPCELL_ROW_13_134
*1178 TAP_TAPCELL_ROW_13_135
*1179 TAP_TAPCELL_ROW_13_136
*1180 TAP_TAPCELL_ROW_14_137
*1181 TAP_TAPCELL_ROW_14_138
*1182 TAP_TAPCELL_ROW_14_139
*1183 TAP_TAPCELL_ROW_14_140
*1184 TAP_TAPCELL_ROW_14_141
*1185 TAP_TAPCELL_ROW_14_142
*1186 TAP_TAPCELL_ROW_14_143
*1187 TAP_TAPCELL_ROW_15_144
*1188 TAP_TAPCELL_ROW_15_145
*1189 TAP_TAPCELL_ROW_15_146
*1190 TAP_TAPCELL_ROW_15_147
*1191 TAP_TAPCELL_ROW_15_148
*1192 TAP_TAPCELL_ROW_15_149
*1193 TAP_TAPCELL_ROW_15_150
*1194 TAP_TAPCELL_ROW_15_151
*1195 TAP_TAPCELL_ROW_15_152
*1196 TAP_TAPCELL_ROW_15_153
*1197 TAP_TAPCELL_ROW_15_154
*1198 TAP_TAPCELL_ROW_15_155
*1199 TAP_TAPCELL_ROW_15_156
*1200 TAP_TAPCELL_ROW_15_157
*1201 TAP_TAPCELL_ROW_1_46
*1202 TAP_TAPCELL_ROW_1_47
*1203 TAP_TAPCELL_ROW_1_48
*1204 TAP_TAPCELL_ROW_1_49
*1205 TAP_TAPCELL_ROW_1_50
*1206 TAP_TAPCELL_ROW_1_51
*1207 TAP_TAPCELL_ROW_1_52
*1208 TAP_TAPCELL_ROW_2_53
*1209 TAP_TAPCELL_ROW_2_54
*1210 TAP_TAPCELL_ROW_2_55
*1211 TAP_TAPCELL_ROW_2_56
*1212 TAP_TAPCELL_ROW_2_57
*1213 TAP_TAPCELL_ROW_2_58
*1214 TAP_TAPCELL_ROW_2_59
*1215 TAP_TAPCELL_ROW_3_60
*1216 TAP_TAPCELL_ROW_3_61
*1217 TAP_TAPCELL_ROW_3_62
*1218 TAP_TAPCELL_ROW_3_63
*1219 TAP_TAPCELL_ROW_3_64
*1220 TAP_TAPCELL_ROW_3_65
*1221 TAP_TAPCELL_ROW_3_66
*1222 TAP_TAPCELL_ROW_4_67
*1223 TAP_TAPCELL_ROW_4_68
*1224 TAP_TAPCELL_ROW_4_69
*1225 TAP_TAPCELL_ROW_4_70
*1226 TAP_TAPCELL_ROW_4_71
*1227 TAP_TAPCELL_ROW_4_72
*1228 TAP_TAPCELL_ROW_4_73
*1229 TAP_TAPCELL_ROW_5_74
*1230 TAP_TAPCELL_ROW_5_75
*1231 TAP_TAPCELL_ROW_5_76
*1232 TAP_TAPCELL_ROW_5_77
*1233 TAP_TAPCELL_ROW_5_78
*1234 TAP_TAPCELL_ROW_5_79
*1235 TAP_TAPCELL_ROW_5_80
*1236 TAP_TAPCELL_ROW_6_81
*1237 TAP_TAPCELL_ROW_6_82
*1238 TAP_TAPCELL_ROW_6_83
*1239 TAP_TAPCELL_ROW_6_84
*1240 TAP_TAPCELL_ROW_6_85
*1241 TAP_TAPCELL_ROW_6_86
*1242 TAP_TAPCELL_ROW_6_87
*1243 TAP_TAPCELL_ROW_7_88
*1244 TAP_TAPCELL_ROW_7_89
*1245 TAP_TAPCELL_ROW_7_90
*1246 TAP_TAPCELL_ROW_7_91
*1247 TAP_TAPCELL_ROW_7_92
*1248 TAP_TAPCELL_ROW_7_93
*1249 TAP_TAPCELL_ROW_7_94
*1250 TAP_TAPCELL_ROW_8_100
*1251 TAP_TAPCELL_ROW_8_101
*1252 TAP_TAPCELL_ROW_8_95
*1253 TAP_TAPCELL_ROW_8_96
*1254 TAP_TAPCELL_ROW_8_97
*1255 TAP_TAPCELL_ROW_8_98
*1256 TAP_TAPCELL_ROW_8_99
*1257 TAP_TAPCELL_ROW_9_102
*1258 TAP_TAPCELL_ROW_9_103
*1259 TAP_TAPCELL_ROW_9_104
*1260 TAP_TAPCELL_ROW_9_105
*1261 TAP_TAPCELL_ROW_9_106
*1262 TAP_TAPCELL_ROW_9_107
*1263 TAP_TAPCELL_ROW_9_108
*1264 _043_
*1265 _044_
*1266 _045_
*1267 _046_
*1268 _047_
*1269 _048_
*1270 _049_
*1271 _050_
*1272 _051_
*1273 _052_
*1274 _053_
*1275 _054_
*1276 _055_
*1277 _056_
*1278 _057_
*1279 _058_
*1280 _059_
*1281 _060_
*1282 _061_
*1283 _062_
*1284 _063_
*1285 _064_
*1286 _065_
*1287 _066_
*1288 _067_
*1289 _068_
*1290 _069_
*1291 _070_
*1292 _071_
*1293 _072_
*1294 _073_
*1295 _074_
*1296 _075_
*1297 _076_
*1298 _077_
*1299 _078_
*1300 _079_
*1301 _080_
*1302 _081_
*1303 _082_
*1304 _083_
*1305 _084_
*1306 _085_
*1307 _086_
*1308 _087_
*1309 _088_
*1310 _089_
*1311 _090_
*1312 _091_
*1313 _092_
*1314 _093_
*1315 _094_
*1316 _095_
*1317 _096_
*1318 _097_
*1319 _098_
*1320 _099_
*1321 _100_
*1322 _101_
*1323 _102_
*1324 _103_
*1325 _104_
*1326 _105_
*1327 _106_
*1328 _107_
*1329 _108_
*1330 _109_
*1331 _110_
*1332 _111_
*1333 _112_
*1334 _113_
*1335 _115_
*1336 _116_
*1337 _117_
*1338 _118_
*1339 _119_
*1340 _120_
*1341 _121_
*1342 _122_
*1343 _123_
*1344 _124_
*1345 _125_
*1346 _126_
*1347 _127_
*1348 _128_
*1349 _129_
*1350 _130_
*1351 _131_
*1352 _132_
*1353 _133_
*1354 _134_
*1355 _135_
*1356 _136_
*1357 _137_
*1358 _138_
*1359 _139_
*1360 _140_
*1361 _141_
*1362 _142_
*1363 _143_
*1364 _144_
*1365 _145_
*1366 _146_
*1367 _147_
*1368 _148_
*1369 _149_
*1370 _150_
*1371 _151_
*1372 _152_
*1373 _153_
*1374 _154_
*1375 _155_
*1376 _156_
*1377 _157_
*1378 _158_
*1379 _159_
*1380 _160_
*1381 _161_
*1382 _162_
*1383 _163_
*1384 _164_
*1385 _165_
*1386 _166_
*1387 _167_
*1388 _168_
*1389 _169_
*1390 _170_
*1391 _171_
*1392 _172_
*1393 _173_
*1394 _174_
*1395 _175_
*1396 _176_
*1397 _177_
*1398 _178_
*1399 _179_
*1400 _180_
*1401 _181_
*1402 _182_
*1403 _183_
*1404 _184_
*1405 _185_
*1406 _186_
*1407 _187_
*1408 _188_
*1409 _189_
*1410 _190_
*1411 _191_
*1412 _192_
*1413 _193_
*1414 _194_
*1415 _195_
*1416 _196_
*1417 _197_
*1418 _198_
*1419 _199_
*1420 _200_
*1421 _201_
*1422 _202_
*1423 _203_
*1424 _204_
*1425 _205_
*1426 _206_
*1427 _207_
*1428 _208_
*1429 _209_
*1430 _210_
*1431 _211_
*1432 _212_
*1433 _213_
*1434 _214_
*1435 _215_
*1436 _216_
*1437 _217_
*1438 _218_
*1439 _219_
*1440 fanout5
*1441 fanout6
*1442 output1
*1443 output10
*1444 output100
*1445 output101
*1446 output102
*1447 output103
*1448 output104
*1449 output105
*1450 output106
*1451 output107
*1452 output108
*1453 output109
*1454 output11
*1455 output110
*1456 output12
*1457 output13
*1458 output14
*1459 output15
*1460 output16
*1461 output17
*1462 output18
*1463 output19
*1464 output2
*1465 output20
*1466 output21
*1467 output22
*1468 output23
*1469 output24
*1470 output25
*1471 output26
*1472 output27
*1473 output28
*1474 output29
*1475 output3
*1476 output30
*1477 output31
*1478 output32
*1479 output33
*1480 output34
*1481 output35
*1482 output36
*1483 output37
*1484 output38
*1485 output39
*1486 output4
*1487 output40
*1488 output41
*1489 output42
*1490 output43
*1491 output44
*1492 output45
*1493 output46
*1494 output47
*1495 output48
*1496 output49
*1497 output5
*1498 output50
*1499 output51
*1500 output52
*1501 output53
*1502 output54
*1503 output55
*1504 output56
*1505 output57
*1506 output58
*1507 output59
*1508 output6
*1509 output60
*1510 output61
*1511 output62
*1512 output63
*1513 output64
*1514 output65
*1515 output66
*1516 output67
*1517 output68
*1518 output69
*1519 output7
*1520 output70
*1521 output71
*1522 output72
*1523 output73
*1524 output74
*1525 output75
*1526 output76
*1527 output77
*1528 output78
*1529 output79
*1530 output8
*1531 output80
*1532 output81
*1533 output82
*1534 output83
*1535 output84
*1536 output85
*1537 output86
*1538 output87
*1539 output88
*1540 output89
*1541 output9
*1542 output90
*1543 output91
*1544 output92
*1545 output93
*1546 output94
*1547 output95
*1548 output96
*1549 output97
*1550 output98
*1551 output99

*PORTS
BOOT_top O
CONFIGURED_top I
Co O
FrameData[0] I
FrameData[10] I
FrameData[11] I
FrameData[12] I
FrameData[13] I
FrameData[14] I
FrameData[15] I
FrameData[16] I
FrameData[17] I
FrameData[18] I
FrameData[19] I
FrameData[1] I
FrameData[20] I
FrameData[21] I
FrameData[22] I
FrameData[23] I
FrameData[24] I
FrameData[25] I
FrameData[26] I
FrameData[27] I
FrameData[28] I
FrameData[29] I
FrameData[2] I
FrameData[30] I
FrameData[31] I
FrameData[3] I
FrameData[4] I
FrameData[5] I
FrameData[6] I
FrameData[7] I
FrameData[8] I
FrameData[9] I
FrameData_O[0] O
FrameData_O[10] O
FrameData_O[11] O
FrameData_O[12] O
FrameData_O[13] O
FrameData_O[14] O
FrameData_O[15] O
FrameData_O[16] O
FrameData_O[17] O
FrameData_O[18] O
FrameData_O[19] O
FrameData_O[1] O
FrameData_O[20] O
FrameData_O[21] O
FrameData_O[22] O
FrameData_O[23] O
FrameData_O[24] O
FrameData_O[25] O
FrameData_O[26] O
FrameData_O[27] O
FrameData_O[28] O
FrameData_O[29] O
FrameData_O[2] O
FrameData_O[30] O
FrameData_O[31] O
FrameData_O[3] O
FrameData_O[4] O
FrameData_O[5] O
FrameData_O[6] O
FrameData_O[7] O
FrameData_O[8] O
FrameData_O[9] O
FrameStrobe[0] I
FrameStrobe[10] I
FrameStrobe[11] I
FrameStrobe[12] I
FrameStrobe[13] I
FrameStrobe[14] I
FrameStrobe[15] I
FrameStrobe[16] I
FrameStrobe[17] I
FrameStrobe[18] I
FrameStrobe[19] I
FrameStrobe[1] I
FrameStrobe[2] I
FrameStrobe[3] I