* NGSPICE file created from S_term_DSP.ext - technology: gf180mcuD

* Black-box entry subcircuit for gf180mcu_fd_sc_mcu7t5v0__fillcap_16 abstract view
.subckt gf180mcu_fd_sc_mcu7t5v0__fillcap_16 VDD VNW VPW VSS
.ends

* Black-box entry subcircuit for gf180mcu_fd_sc_mcu7t5v0__filltie abstract view
.subckt gf180mcu_fd_sc_mcu7t5v0__filltie VDD VSS
.ends

* Black-box entry subcircuit for gf180mcu_fd_sc_mcu7t5v0__fill_2 abstract view
.subckt gf180mcu_fd_sc_mcu7t5v0__fill_2 VDD VNW VPW VSS
.ends

* Black-box entry subcircuit for gf180mcu_fd_sc_mcu7t5v0__antenna abstract view
.subckt gf180mcu_fd_sc_mcu7t5v0__antenna I VDD VNW VPW VSS
.ends

* Black-box entry subcircuit for gf180mcu_fd_sc_mcu7t5v0__fill_1 abstract view
.subckt gf180mcu_fd_sc_mcu7t5v0__fill_1 VDD VNW VPW VSS
.ends

* Black-box entry subcircuit for gf180mcu_fd_sc_mcu7t5v0__fillcap_64 abstract view
.subckt gf180mcu_fd_sc_mcu7t5v0__fillcap_64 VDD VNW VPW VSS
.ends

* Black-box entry subcircuit for gf180mcu_fd_sc_mcu7t5v0__buf_2 abstract view
.subckt gf180mcu_fd_sc_mcu7t5v0__buf_2 I Z VDD VNW VPW VSS
.ends

* Black-box entry subcircuit for gf180mcu_fd_sc_mcu7t5v0__fillcap_4 abstract view
.subckt gf180mcu_fd_sc_mcu7t5v0__fillcap_4 VDD VNW VPW VSS
.ends

* Black-box entry subcircuit for gf180mcu_fd_sc_mcu7t5v0__fillcap_8 abstract view
.subckt gf180mcu_fd_sc_mcu7t5v0__fillcap_8 VDD VNW VPW VSS
.ends

* Black-box entry subcircuit for gf180mcu_fd_sc_mcu7t5v0__buf_4 abstract view
.subckt gf180mcu_fd_sc_mcu7t5v0__buf_4 I Z VDD VNW VPW VSS
.ends

* Black-box entry subcircuit for gf180mcu_fd_sc_mcu7t5v0__fillcap_32 abstract view
.subckt gf180mcu_fd_sc_mcu7t5v0__fillcap_32 VDD VNW VPW VSS
.ends

* Black-box entry subcircuit for gf180mcu_fd_sc_mcu7t5v0__endcap abstract view
.subckt gf180mcu_fd_sc_mcu7t5v0__endcap VDD VSS
.ends

* Black-box entry subcircuit for gf180mcu_fd_sc_mcu7t5v0__buf_1 abstract view
.subckt gf180mcu_fd_sc_mcu7t5v0__buf_1 I Z VDD VNW VPW VSS
.ends

.subckt S_term_DSP FrameData[0] FrameData[10] FrameData[11] FrameData[12] FrameData[13]
+ FrameData[14] FrameData[15] FrameData[16] FrameData[17] FrameData[18] FrameData[19]
+ FrameData[1] FrameData[20] FrameData[21] FrameData[22] FrameData[23] FrameData[24]
+ FrameData[25] FrameData[26] FrameData[27] FrameData[28] FrameData[29] FrameData[2]
+ FrameData[30] FrameData[31] FrameData[3] FrameData[4] FrameData[5] FrameData[6]
+ FrameData[7] FrameData[8] FrameData[9] FrameData_O[0] FrameData_O[10] FrameData_O[11]
+ FrameData_O[12] FrameData_O[13] FrameData_O[14] FrameData_O[15] FrameData_O[16]
+ FrameData_O[17] FrameData_O[18] FrameData_O[19] FrameData_O[1] FrameData_O[20] FrameData_O[21]
+ FrameData_O[22] FrameData_O[23] FrameData_O[24] FrameData_O[25] FrameData_O[26]
+ FrameData_O[27] FrameData_O[28] FrameData_O[29] FrameData_O[2] FrameData_O[30] FrameData_O[31]
+ FrameData_O[3] FrameData_O[4] FrameData_O[5] FrameData_O[6] FrameData_O[7] FrameData_O[8]
+ FrameData_O[9] FrameStrobe[0] FrameStrobe[10] FrameStrobe[11] FrameStrobe[12] FrameStrobe[13]
+ FrameStrobe[14] FrameStrobe[15] FrameStrobe[16] FrameStrobe[17] FrameStrobe[18]
+ FrameStrobe[19] FrameStrobe[1] FrameStrobe[2] FrameStrobe[3] FrameStrobe[4] FrameStrobe[5]
+ FrameStrobe[6] FrameStrobe[7] FrameStrobe[8] FrameStrobe[9] FrameStrobe_O[0] FrameStrobe_O[10]
+ FrameStrobe_O[11] FrameStrobe_O[12] FrameStrobe_O[13] FrameStrobe_O[14] FrameStrobe_O[15]
+ FrameStrobe_O[16] FrameStrobe_O[17] FrameStrobe_O[18] FrameStrobe_O[19] FrameStrobe_O[1]
+ FrameStrobe_O[2] FrameStrobe_O[3] FrameStrobe_O[4] FrameStrobe_O[5] FrameStrobe_O[6]
+ FrameStrobe_O[7] FrameStrobe_O[8] FrameStrobe_O[9] N1BEG[0] N1BEG[1] N1BEG[2] N1BEG[3]
+ N2BEG[0] N2BEG[1] N2BEG[2] N2BEG[3] N2BEG[4] N2BEG[5] N2BEG[6] N2BEG[7] N2BEGb[0]
+ N2BEGb[1] N2BEGb[2] N2BEGb[3] N2BEGb[4] N2BEGb[5] N2BEGb[6] N2BEGb[7] N4BEG[0] N4BEG[10]
+ N4BEG[11] N4BEG[12] N4BEG[13] N4BEG[14] N4BEG[15] N4BEG[1] N4BEG[2] N4BEG[3] N4BEG[4]
+ N4BEG[5] N4BEG[6] N4BEG[7] N4BEG[8] N4BEG[9] NN4BEG[0] NN4BEG[10] NN4BEG[11] NN4BEG[12]
+ NN4BEG[13] NN4BEG[14] NN4BEG[15] NN4BEG[1] NN4BEG[2] NN4BEG[3] NN4BEG[4] NN4BEG[5]
+ NN4BEG[6] NN4BEG[7] NN4BEG[8] NN4BEG[9] S1END[0] S1END[1] S1END[2] S1END[3] S2END[0]
+ S2END[1] S2END[2] S2END[3] S2END[4] S2END[5] S2END[6] S2END[7] S2MID[0] S2MID[1]
+ S2MID[2] S2MID[3] S2MID[4] S2MID[5] S2MID[6] S2MID[7] S4END[0] S4END[10] S4END[11]
+ S4END[12] S4END[13] S4END[14] S4END[15] S4END[1] S4END[2] S4END[3] S4END[4] S4END[5]
+ S4END[6] S4END[7] S4END[8] S4END[9] SS4END[0] SS4END[10] SS4END[11] SS4END[12] SS4END[13]
+ SS4END[14] SS4END[15] SS4END[1] SS4END[2] SS4END[3] SS4END[4] SS4END[5] SS4END[6]
+ SS4END[7] SS4END[8] SS4END[9] UserCLK UserCLKo VDD VSS
XFILLER_10_317 VDD VDD VSS VSS gf180mcu_fd_sc_mcu7t5v0__fillcap_16
XTAP_TAPCELL_ROW_15_139 VDD VSS gf180mcu_fd_sc_mcu7t5v0__filltie
XFILLER_3_67 VDD VDD VSS VSS gf180mcu_fd_sc_mcu7t5v0__fill_2
XANTENNA__074__I S4END[13] VDD VDD VSS VSS gf180mcu_fd_sc_mcu7t5v0__antenna
XFILLER_12_76 VDD VDD VSS VSS gf180mcu_fd_sc_mcu7t5v0__fill_1
XFILLER_6_107 VDD VDD VSS VSS gf180mcu_fd_sc_mcu7t5v0__fillcap_64
XANTENNA__069__I S2END[2] VDD VDD VSS VSS gf180mcu_fd_sc_mcu7t5v0__antenna
XFILLER_15_206 VDD VDD VSS VSS gf180mcu_fd_sc_mcu7t5v0__fill_1
XFILLER_11_401 VDD VDD VSS VSS gf180mcu_fd_sc_mcu7t5v0__fillcap_16
X_062_ S2MID[1] net63 VDD VDD VSS VSS gf180mcu_fd_sc_mcu7t5v0__buf_2
XFILLER_9_66 VDD VDD VSS VSS gf180mcu_fd_sc_mcu7t5v0__fillcap_4
X_045_ FrameStrobe[13] net37 VDD VDD VSS VSS gf180mcu_fd_sc_mcu7t5v0__buf_2
XFILLER_11_275 VDD VDD VSS VSS gf180mcu_fd_sc_mcu7t5v0__fillcap_4
XFILLER_7_279 VDD VDD VSS VSS gf180mcu_fd_sc_mcu7t5v0__fill_1
XANTENNA__082__I S4END[5] VDD VDD VSS VSS gf180mcu_fd_sc_mcu7t5v0__antenna
X_028_ FrameData[28] net21 VDD VDD VSS VSS gf180mcu_fd_sc_mcu7t5v0__buf_2
XANTENNA__077__I S4END[10] VDD VDD VSS VSS gf180mcu_fd_sc_mcu7t5v0__antenna
XFILLER_3_282 VDD VDD VSS VSS gf180mcu_fd_sc_mcu7t5v0__fill_2
XFILLER_6_34 VDD VDD VSS VSS gf180mcu_fd_sc_mcu7t5v0__fill_1
XFILLER_15_54 VDD VDD VSS VSS gf180mcu_fd_sc_mcu7t5v0__fillcap_8
Xoutput20 net20 FrameData_O[27] VDD VDD VSS VSS gf180mcu_fd_sc_mcu7t5v0__buf_4
Xoutput86 net86 N4BEG[7] VDD VDD VSS VSS gf180mcu_fd_sc_mcu7t5v0__buf_4
Xoutput97 net97 NN4BEG[2] VDD VDD VSS VSS gf180mcu_fd_sc_mcu7t5v0__buf_4
Xoutput64 net64 N2BEG[7] VDD VDD VSS VSS gf180mcu_fd_sc_mcu7t5v0__buf_4
XFILLER_12_381 VDD VDD VSS VSS gf180mcu_fd_sc_mcu7t5v0__fillcap_4
Xoutput42 net42 FrameStrobe_O[18] VDD VDD VSS VSS gf180mcu_fd_sc_mcu7t5v0__buf_4
Xoutput75 net75 N4BEG[11] VDD VDD VSS VSS gf180mcu_fd_sc_mcu7t5v0__buf_4
Xoutput53 net53 N1BEG[0] VDD VDD VSS VSS gf180mcu_fd_sc_mcu7t5v0__buf_4
Xoutput7 net7 FrameData_O[15] VDD VDD VSS VSS gf180mcu_fd_sc_mcu7t5v0__buf_4
XFILLER_0_274 VDD VDD VSS VSS gf180mcu_fd_sc_mcu7t5v0__fillcap_32
XTAP_TAPCELL_ROW_2_57 VDD VSS gf180mcu_fd_sc_mcu7t5v0__filltie
Xoutput31 net31 FrameData_O[8] VDD VDD VSS VSS gf180mcu_fd_sc_mcu7t5v0__buf_4
XANTENNA__090__I SS4END[13] VDD VDD VSS VSS gf180mcu_fd_sc_mcu7t5v0__antenna
XFILLER_12_66 VDD VDD VSS VSS gf180mcu_fd_sc_mcu7t5v0__fillcap_8
XFILLER_12_33 VDD VDD VSS VSS gf180mcu_fd_sc_mcu7t5v0__fill_2
XFILLER_2_336 VDD VDD VSS VSS gf180mcu_fd_sc_mcu7t5v0__fill_2
XTAP_TAPCELL_ROW_11_110 VDD VSS gf180mcu_fd_sc_mcu7t5v0__filltie
XFILLER_1_380 VDD VDD VSS VSS gf180mcu_fd_sc_mcu7t5v0__fill_2
XFILLER_5_130 VDD VDD VSS VSS gf180mcu_fd_sc_mcu7t5v0__fillcap_8
XANTENNA__085__I S4END[2] VDD VDD VSS VSS gf180mcu_fd_sc_mcu7t5v0__antenna
XPHY_EDGE_ROW_12_Right_12 VDD VSS gf180mcu_fd_sc_mcu7t5v0__endcap
XFILLER_7_428 VDD VDD VSS VSS gf180mcu_fd_sc_mcu7t5v0__fill_1
XFILLER_0_36 VDD VDD VSS VSS gf180mcu_fd_sc_mcu7t5v0__fillcap_32
XFILLER_2_177 VDD VDD VSS VSS gf180mcu_fd_sc_mcu7t5v0__fillcap_64
XFILLER_3_2 VDD VDD VSS VSS gf180mcu_fd_sc_mcu7t5v0__fillcap_4
X_061_ S2MID[2] net62 VDD VDD VSS VSS gf180mcu_fd_sc_mcu7t5v0__buf_2
XFILLER_11_298 VDD VDD VSS VSS gf180mcu_fd_sc_mcu7t5v0__fill_1
XFILLER_11_243 VDD VDD VSS VSS gf180mcu_fd_sc_mcu7t5v0__fillcap_32
X_044_ FrameStrobe[12] net36 VDD VDD VSS VSS gf180mcu_fd_sc_mcu7t5v0__buf_2
XFILLER_0_456 VDD VDD VSS VSS gf180mcu_fd_sc_mcu7t5v0__fill_1
XFILLER_3_250 VDD VDD VSS VSS gf180mcu_fd_sc_mcu7t5v0__fill_2
X_027_ FrameData[27] net20 VDD VDD VSS VSS gf180mcu_fd_sc_mcu7t5v0__buf_2
XFILLER_15_66 VDD VDD VSS VSS gf180mcu_fd_sc_mcu7t5v0__fill_2
XFILLER_13_349 VDD VDD VSS VSS gf180mcu_fd_sc_mcu7t5v0__fill_1
XPHY_EDGE_ROW_6_Right_6 VDD VSS gf180mcu_fd_sc_mcu7t5v0__endcap
XFILLER_1_209 VDD VDD VSS VSS gf180mcu_fd_sc_mcu7t5v0__fill_1
XANTENNA__093__I SS4END[10] VDD VDD VSS VSS gf180mcu_fd_sc_mcu7t5v0__antenna
Xoutput21 net21 FrameData_O[28] VDD VDD VSS VSS gf180mcu_fd_sc_mcu7t5v0__buf_4
Xoutput43 net43 FrameStrobe_O[19] VDD VDD VSS VSS gf180mcu_fd_sc_mcu7t5v0__buf_4
Xoutput76 net76 N4BEG[12] VDD VDD VSS VSS gf180mcu_fd_sc_mcu7t5v0__buf_4
Xoutput98 net98 NN4BEG[3] VDD VDD VSS VSS gf180mcu_fd_sc_mcu7t5v0__buf_4
Xoutput87 net87 N4BEG[8] VDD VDD VSS VSS gf180mcu_fd_sc_mcu7t5v0__buf_4
Xoutput54 net54 N1BEG[1] VDD VDD VSS VSS gf180mcu_fd_sc_mcu7t5v0__buf_4
Xoutput65 net65 N2BEGb[0] VDD VDD VSS VSS gf180mcu_fd_sc_mcu7t5v0__buf_4
Xoutput10 net10 FrameData_O[18] VDD VDD VSS VSS gf180mcu_fd_sc_mcu7t5v0__buf_4
Xoutput8 net8 FrameData_O[16] VDD VDD VSS VSS gf180mcu_fd_sc_mcu7t5v0__buf_4
Xoutput32 net32 FrameData_O[9] VDD VDD VSS VSS gf180mcu_fd_sc_mcu7t5v0__buf_4
XANTENNA__088__I SS4END[15] VDD VDD VSS VSS gf180mcu_fd_sc_mcu7t5v0__antenna
XFILLER_5_334 VDD VDD VSS VSS gf180mcu_fd_sc_mcu7t5v0__fill_2
XTAP_TAPCELL_ROW_14_130 VDD VSS gf180mcu_fd_sc_mcu7t5v0__filltie
XFILLER_3_69 VDD VDD VSS VSS gf180mcu_fd_sc_mcu7t5v0__fill_1
XFILLER_12_45 VDD VDD VSS VSS gf180mcu_fd_sc_mcu7t5v0__fill_2
XFILLER_2_348 VDD VDD VSS VSS gf180mcu_fd_sc_mcu7t5v0__fillcap_32
XFILLER_14_411 VDD VDD VSS VSS gf180mcu_fd_sc_mcu7t5v0__fill_2
XTAP_TAPCELL_ROW_11_111 VDD VSS gf180mcu_fd_sc_mcu7t5v0__filltie
XFILLER_1_392 VDD VDD VSS VSS gf180mcu_fd_sc_mcu7t5v0__fillcap_16
XFILLER_5_142 VDD VDD VSS VSS gf180mcu_fd_sc_mcu7t5v0__fill_2
XFILLER_14_274 VDD VDD VSS VSS gf180mcu_fd_sc_mcu7t5v0__fillcap_32
XFILLER_14_263 VDD VDD VSS VSS gf180mcu_fd_sc_mcu7t5v0__fill_1
X_060_ S2MID[3] net61 VDD VDD VSS VSS gf180mcu_fd_sc_mcu7t5v0__buf_2
XANTENNA__096__I SS4END[7] VDD VDD VSS VSS gf180mcu_fd_sc_mcu7t5v0__antenna
XFILLER_11_222 VDD VDD VSS VSS gf180mcu_fd_sc_mcu7t5v0__fillcap_4
X_043_ FrameStrobe[11] net35 VDD VDD VSS VSS gf180mcu_fd_sc_mcu7t5v0__buf_2
XFILLER_3_262 VDD VDD VSS VSS gf180mcu_fd_sc_mcu7t5v0__fillcap_16
XFILLER_3_284 VDD VDD VSS VSS gf180mcu_fd_sc_mcu7t5v0__fill_1
XFILLER_3_295 VDD VDD VSS VSS gf180mcu_fd_sc_mcu7t5v0__fillcap_32
X_026_ FrameData[26] net19 VDD VDD VSS VSS gf180mcu_fd_sc_mcu7t5v0__buf_2
Xoutput33 net33 FrameStrobe_O[0] VDD VDD VSS VSS gf180mcu_fd_sc_mcu7t5v0__buf_4
Xoutput99 net99 NN4BEG[4] VDD VDD VSS VSS gf180mcu_fd_sc_mcu7t5v0__buf_4
Xoutput22 net22 FrameData_O[29] VDD VDD VSS VSS gf180mcu_fd_sc_mcu7t5v0__buf_4
Xoutput44 net44 FrameStrobe_O[1] VDD VDD VSS VSS gf180mcu_fd_sc_mcu7t5v0__buf_4
Xoutput88 net88 N4BEG[9] VDD VDD VSS VSS gf180mcu_fd_sc_mcu7t5v0__buf_4
Xoutput77 net77 N4BEG[13] VDD VDD VSS VSS gf180mcu_fd_sc_mcu7t5v0__buf_4
Xoutput66 net66 N2BEGb[1] VDD VDD VSS VSS gf180mcu_fd_sc_mcu7t5v0__buf_4
Xoutput11 net11 FrameData_O[19] VDD VDD VSS VSS gf180mcu_fd_sc_mcu7t5v0__buf_4
Xoutput9 net9 FrameData_O[17] VDD VDD VSS VSS gf180mcu_fd_sc_mcu7t5v0__buf_4
Xoutput55 net55 N1BEG[2] VDD VDD VSS VSS gf180mcu_fd_sc_mcu7t5v0__buf_4
XFILLER_11_2 VDD VDD VSS VSS gf180mcu_fd_sc_mcu7t5v0__fillcap_64
XFILLER_8_387 VDD VDD VSS VSS gf180mcu_fd_sc_mcu7t5v0__fillcap_32
X_009_ FrameData[9] net32 VDD VDD VSS VSS gf180mcu_fd_sc_mcu7t5v0__buf_2
XTAP_TAPCELL_ROW_14_131 VDD VSS gf180mcu_fd_sc_mcu7t5v0__filltie
XFILLER_8_151 VDD VDD VSS VSS gf180mcu_fd_sc_mcu7t5v0__fillcap_4
XANTENNA__099__I SS4END[4] VDD VDD VSS VSS gf180mcu_fd_sc_mcu7t5v0__antenna
XTAP_TAPCELL_ROW_11_112 VDD VSS gf180mcu_fd_sc_mcu7t5v0__filltie
XFILLER_5_187 VDD VDD VSS VSS gf180mcu_fd_sc_mcu7t5v0__fillcap_4
XFILLER_11_426 VDD VDD VSS VSS gf180mcu_fd_sc_mcu7t5v0__fill_2
XFILLER_7_419 VDD VDD VSS VSS gf180mcu_fd_sc_mcu7t5v0__fill_1
XFILLER_6_430 VDD VDD VSS VSS gf180mcu_fd_sc_mcu7t5v0__fill_1
XFILLER_11_201 VDD VDD VSS VSS gf180mcu_fd_sc_mcu7t5v0__fillcap_8
XFILLER_9_290 VDD VDD VSS VSS gf180mcu_fd_sc_mcu7t5v0__fillcap_32
XPHY_EDGE_ROW_12_Left_28 VDD VSS gf180mcu_fd_sc_mcu7t5v0__endcap
X_042_ FrameStrobe[10] net34 VDD VDD VSS VSS gf180mcu_fd_sc_mcu7t5v0__buf_2
XFILLER_3_422 VDD VDD VSS VSS gf180mcu_fd_sc_mcu7t5v0__fillcap_4
XFILLER_3_230 VDD VDD VSS VSS gf180mcu_fd_sc_mcu7t5v0__fillcap_4
X_025_ FrameData[25] net18 VDD VDD VSS VSS gf180mcu_fd_sc_mcu7t5v0__buf_2
XFILLER_15_370 VDD VDD VSS VSS gf180mcu_fd_sc_mcu7t5v0__fill_1
XFILLER_10_90 VDD VDD VSS VSS gf180mcu_fd_sc_mcu7t5v0__fill_1
XTAP_TAPCELL_ROW_6_80 VDD VSS gf180mcu_fd_sc_mcu7t5v0__filltie
Xoutput45 net45 FrameStrobe_O[2] VDD VDD VSS VSS gf180mcu_fd_sc_mcu7t5v0__buf_4
XFILLER_13_318 VDD VDD VSS VSS gf180mcu_fd_sc_mcu7t5v0__fill_1
Xoutput78 net78 N4BEG[14] VDD VDD VSS VSS gf180mcu_fd_sc_mcu7t5v0__buf_4
Xoutput56 net56 N1BEG[3] VDD VDD VSS VSS gf180mcu_fd_sc_mcu7t5v0__buf_4
Xoutput34 net34 FrameStrobe_O[10] VDD VDD VSS VSS gf180mcu_fd_sc_mcu7t5v0__buf_4
Xoutput89 net89 NN4BEG[0] VDD VDD VSS VSS gf180mcu_fd_sc_mcu7t5v0__buf_4
Xoutput67 net67 N2BEGb[2] VDD VDD VSS VSS gf180mcu_fd_sc_mcu7t5v0__buf_4
Xoutput23 net23 FrameData_O[2] VDD VDD VSS VSS gf180mcu_fd_sc_mcu7t5v0__buf_4
XFILLER_0_200 VDD VDD VSS VSS gf180mcu_fd_sc_mcu7t5v0__fillcap_4
Xoutput12 net12 FrameData_O[1] VDD VDD VSS VSS gf180mcu_fd_sc_mcu7t5v0__buf_4
X_008_ FrameData[8] net31 VDD VDD VSS VSS gf180mcu_fd_sc_mcu7t5v0__buf_2
XFILLER_8_311 VDD VDD VSS VSS gf180mcu_fd_sc_mcu7t5v0__fillcap_4
XPHY_EDGE_ROW_15_Left_31 VDD VSS gf180mcu_fd_sc_mcu7t5v0__endcap
XTAP_TAPCELL_ROW_14_132 VDD VSS gf180mcu_fd_sc_mcu7t5v0__filltie
XFILLER_5_314 VDD VDD VSS VSS gf180mcu_fd_sc_mcu7t5v0__fillcap_16
XFILLER_12_181 VDD VDD VSS VSS gf180mcu_fd_sc_mcu7t5v0__fill_2
XFILLER_10_107 VDD VDD VSS VSS gf180mcu_fd_sc_mcu7t5v0__fill_2
XFILLER_8_185 VDD VDD VSS VSS gf180mcu_fd_sc_mcu7t5v0__fill_2
XTAP_TAPCELL_ROW_11_113 VDD VSS gf180mcu_fd_sc_mcu7t5v0__filltie
XFILLER_12_47 VDD VDD VSS VSS gf180mcu_fd_sc_mcu7t5v0__fill_1
XPHY_EDGE_ROW_0_Left_16 VDD VSS gf180mcu_fd_sc_mcu7t5v0__endcap
XFILLER_2_317 VDD VDD VSS VSS gf180mcu_fd_sc_mcu7t5v0__fillcap_4
XFILLER_5_144 VDD VDD VSS VSS gf180mcu_fd_sc_mcu7t5v0__fill_1
XFILLER_5_155 VDD VDD VSS VSS gf180mcu_fd_sc_mcu7t5v0__fillcap_32
XFILLER_2_169 VDD VDD VSS VSS gf180mcu_fd_sc_mcu7t5v0__fillcap_4
XFILLER_4_81 VDD VDD VSS VSS gf180mcu_fd_sc_mcu7t5v0__fill_2
X_041_ FrameStrobe[9] net52 VDD VDD VSS VSS gf180mcu_fd_sc_mcu7t5v0__buf_2
XFILLER_11_279 VDD VDD VSS VSS gf180mcu_fd_sc_mcu7t5v0__fill_1
XFILLER_7_206 VDD VDD VSS VSS gf180mcu_fd_sc_mcu7t5v0__fillcap_4
XFILLER_1_2 VDD VDD VSS VSS gf180mcu_fd_sc_mcu7t5v0__fillcap_64
XFILLER_4_209 VDD VDD VSS VSS gf180mcu_fd_sc_mcu7t5v0__fillcap_16
X_024_ FrameData[24] net17 VDD VDD VSS VSS gf180mcu_fd_sc_mcu7t5v0__buf_2
XTAP_TAPCELL_ROW_6_81 VDD VSS gf180mcu_fd_sc_mcu7t5v0__filltie
XANTENNA__001__I FrameData[1] VDD VDD VSS VSS gf180mcu_fd_sc_mcu7t5v0__antenna
XFILLER_15_36 VDD VDD VSS VSS gf180mcu_fd_sc_mcu7t5v0__fillcap_16
Xoutput46 net46 FrameStrobe_O[3] VDD VDD VSS VSS gf180mcu_fd_sc_mcu7t5v0__buf_4
Xoutput35 net35 FrameStrobe_O[11] VDD VDD VSS VSS gf180mcu_fd_sc_mcu7t5v0__buf_4
Xoutput13 net13 FrameData_O[20] VDD VDD VSS VSS gf180mcu_fd_sc_mcu7t5v0__buf_4
Xoutput24 net24 FrameData_O[30] VDD VDD VSS VSS gf180mcu_fd_sc_mcu7t5v0__buf_4
Xoutput57 net57 N2BEG[0] VDD VDD VSS VSS gf180mcu_fd_sc_mcu7t5v0__buf_4
Xoutput79 net79 N4BEG[15] VDD VDD VSS VSS gf180mcu_fd_sc_mcu7t5v0__buf_4
Xoutput68 net68 N2BEGb[3] VDD VDD VSS VSS gf180mcu_fd_sc_mcu7t5v0__buf_4
X_007_ FrameData[7] net30 VDD VDD VSS VSS gf180mcu_fd_sc_mcu7t5v0__buf_2
XFILLER_5_348 VDD VDD VSS VSS gf180mcu_fd_sc_mcu7t5v0__fill_2
XTAP_TAPCELL_ROW_14_133 VDD VSS gf180mcu_fd_sc_mcu7t5v0__filltie
XTAP_TAPCELL_ROW_3_60 VDD VSS gf180mcu_fd_sc_mcu7t5v0__filltie
XFILLER_14_403 VDD VDD VSS VSS gf180mcu_fd_sc_mcu7t5v0__fillcap_8
XFILLER_12_37 VDD VDD VSS VSS gf180mcu_fd_sc_mcu7t5v0__fillcap_8
XTAP_TAPCELL_ROW_11_114 VDD VSS gf180mcu_fd_sc_mcu7t5v0__filltie
XFILLER_11_428 VDD VDD VSS VSS gf180mcu_fd_sc_mcu7t5v0__fill_1
XFILLER_11_417 VDD VDD VSS VSS gf180mcu_fd_sc_mcu7t5v0__fill_2
XFILLER_4_93 VDD VDD VSS VSS gf180mcu_fd_sc_mcu7t5v0__fillcap_8
XFILLER_13_80 VDD VDD VSS VSS gf180mcu_fd_sc_mcu7t5v0__fillcap_4
XANTENNA__004__I FrameData[4] VDD VDD VSS VSS gf180mcu_fd_sc_mcu7t5v0__antenna
XFILLER_3_6 VDD VDD VSS VSS gf180mcu_fd_sc_mcu7t5v0__fill_2
X_040_ FrameStrobe[8] net51 VDD VDD VSS VSS gf180mcu_fd_sc_mcu7t5v0__buf_2
XFILLER_1_72 VDD VDD VSS VSS gf180mcu_fd_sc_mcu7t5v0__fillcap_16
X_023_ FrameData[23] net16 VDD VDD VSS VSS gf180mcu_fd_sc_mcu7t5v0__buf_2
XTAP_TAPCELL_ROW_6_82 VDD VSS gf180mcu_fd_sc_mcu7t5v0__filltie
Xoutput47 net47 FrameStrobe_O[4] VDD VDD VSS VSS gf180mcu_fd_sc_mcu7t5v0__buf_4
Xoutput36 net36 FrameStrobe_O[12] VDD VDD VSS VSS gf180mcu_fd_sc_mcu7t5v0__buf_4
Xoutput69 net69 N2BEGb[4] VDD VDD VSS VSS gf180mcu_fd_sc_mcu7t5v0__buf_4
XANTENNA__102__I SS4END[1] VDD VDD VSS VSS gf180mcu_fd_sc_mcu7t5v0__antenna
Xoutput14 net14 FrameData_O[21] VDD VDD VSS VSS gf180mcu_fd_sc_mcu7t5v0__buf_4
Xoutput25 net25 FrameData_O[31] VDD VDD VSS VSS gf180mcu_fd_sc_mcu7t5v0__buf_4
X_006_ FrameData[6] net29 VDD VDD VSS VSS gf180mcu_fd_sc_mcu7t5v0__buf_2
Xoutput58 net58 N2BEG[1] VDD VDD VSS VSS gf180mcu_fd_sc_mcu7t5v0__buf_4
XANTENNA__012__I FrameData[12] VDD VDD VSS VSS gf180mcu_fd_sc_mcu7t5v0__antenna
XTAP_TAPCELL_ROW_14_134 VDD VSS gf180mcu_fd_sc_mcu7t5v0__filltie
XANTENNA__007__I FrameData[7] VDD VDD VSS VSS gf180mcu_fd_sc_mcu7t5v0__antenna
XFILLER_8_198 VDD VDD VSS VSS gf180mcu_fd_sc_mcu7t5v0__fill_2
XFILLER_8_187 VDD VDD VSS VSS gf180mcu_fd_sc_mcu7t5v0__fill_1
XTAP_TAPCELL_ROW_3_61 VDD VSS gf180mcu_fd_sc_mcu7t5v0__filltie
XFILLER_4_382 VDD VDD VSS VSS gf180mcu_fd_sc_mcu7t5v0__fill_1
XTAP_TAPCELL_ROW_11_115 VDD VSS gf180mcu_fd_sc_mcu7t5v0__filltie
XFILLER_1_352 VDD VDD VSS VSS gf180mcu_fd_sc_mcu7t5v0__fillcap_16
XANTENNA__020__I FrameData[20] VDD VDD VSS VSS gf180mcu_fd_sc_mcu7t5v0__antenna
XTAP_TAPCELL_ROW_0_40 VDD VSS gf180mcu_fd_sc_mcu7t5v0__filltie
XFILLER_11_226 VDD VDD VSS VSS gf180mcu_fd_sc_mcu7t5v0__fill_1
XANTENNA__015__I FrameData[15] VDD VDD VSS VSS gf180mcu_fd_sc_mcu7t5v0__antenna
X_099_ SS4END[4] net91 VDD VDD VSS VSS gf180mcu_fd_sc_mcu7t5v0__buf_2
X_022_ FrameData[22] net15 VDD VDD VSS VSS gf180mcu_fd_sc_mcu7t5v0__buf_2
XFILLER_3_222 VDD VDD VSS VSS gf180mcu_fd_sc_mcu7t5v0__fillcap_8
XFILLER_15_373 VDD VDD VSS VSS gf180mcu_fd_sc_mcu7t5v0__fill_1
XTAP_TAPCELL_ROW_6_83 VDD VSS gf180mcu_fd_sc_mcu7t5v0__filltie
Xoutput15 net15 FrameData_O[22] VDD VDD VSS VSS gf180mcu_fd_sc_mcu7t5v0__buf_4
XFILLER_12_387 VDD VDD VSS VSS gf180mcu_fd_sc_mcu7t5v0__fillcap_16
Xoutput37 net37 FrameStrobe_O[13] VDD VDD VSS VSS gf180mcu_fd_sc_mcu7t5v0__buf_4
Xoutput48 net48 FrameStrobe_O[5] VDD VDD VSS VSS gf180mcu_fd_sc_mcu7t5v0__buf_4
Xoutput59 net59 N2BEG[2] VDD VDD VSS VSS gf180mcu_fd_sc_mcu7t5v0__buf_4
XPHY_EDGE_ROW_1_Right_1 VDD VSS gf180mcu_fd_sc_mcu7t5v0__endcap
Xoutput26 net26 FrameData_O[3] VDD VDD VSS VSS gf180mcu_fd_sc_mcu7t5v0__buf_4
X_005_ FrameData[5] net28 VDD VDD VSS VSS gf180mcu_fd_sc_mcu7t5v0__buf_2
XFILLER_7_72 VDD VDD VSS VSS gf180mcu_fd_sc_mcu7t5v0__fill_1
XFILLER_7_83 VDD VDD VSS VSS gf180mcu_fd_sc_mcu7t5v0__fillcap_32
XTAP_TAPCELL_ROW_14_135 VDD VSS gf180mcu_fd_sc_mcu7t5v0__filltie
XANTENNA__023__I FrameData[23] VDD VDD VSS VSS gf180mcu_fd_sc_mcu7t5v0__antenna
XFILLER_8_177 VDD VDD VSS VSS gf180mcu_fd_sc_mcu7t5v0__fillcap_8
XFILLER_8_155 VDD VDD VSS VSS gf180mcu_fd_sc_mcu7t5v0__fill_2
XFILLER_3_19 VDD VDD VSS VSS gf180mcu_fd_sc_mcu7t5v0__fillcap_32
XTAP_TAPCELL_ROW_3_62 VDD VSS gf180mcu_fd_sc_mcu7t5v0__filltie
XFILLER_12_17 VDD VDD VSS VSS gf180mcu_fd_sc_mcu7t5v0__fillcap_16
XANTENNA__018__I FrameData[18] VDD VDD VSS VSS gf180mcu_fd_sc_mcu7t5v0__antenna
XFILLER_11_419 VDD VDD VSS VSS gf180mcu_fd_sc_mcu7t5v0__fill_1
XFILLER_3_8 VDD VDD VSS VSS gf180mcu_fd_sc_mcu7t5v0__fill_1
XFILLER_13_60 VDD VDD VSS VSS gf180mcu_fd_sc_mcu7t5v0__fill_1
XTAP_TAPCELL_ROW_0_41 VDD VSS gf180mcu_fd_sc_mcu7t5v0__filltie
XFILLER_1_183 VDD VDD VSS VSS gf180mcu_fd_sc_mcu7t5v0__fillcap_16
XFILLER_1_172 VDD VDD VSS VSS gf180mcu_fd_sc_mcu7t5v0__fill_1
X_098_ SS4END[5] net90 VDD VDD VSS VSS gf180mcu_fd_sc_mcu7t5v0__buf_2
XFILLER_3_426 VDD VDD VSS VSS gf180mcu_fd_sc_mcu7t5v0__fill_2
XFILLER_6_231 VDD VDD VSS VSS gf180mcu_fd_sc_mcu7t5v0__fillcap_8
XANTENNA__031__I FrameData[31] VDD VDD VSS VSS gf180mcu_fd_sc_mcu7t5v0__antenna
XFILLER_1_96 VDD VDD VSS VSS gf180mcu_fd_sc_mcu7t5v0__fill_1
XFILLER_10_61 VDD VDD VSS VSS gf180mcu_fd_sc_mcu7t5v0__fillcap_4
XPHY_EDGE_ROW_7_Left_23 VDD VSS gf180mcu_fd_sc_mcu7t5v0__endcap
X_021_ FrameData[21] net14 VDD VDD VSS VSS gf180mcu_fd_sc_mcu7t5v0__buf_2
XFILLER_3_234 VDD VDD VSS VSS gf180mcu_fd_sc_mcu7t5v0__fill_2
XFILLER_3_278 VDD VDD VSS VSS gf180mcu_fd_sc_mcu7t5v0__fill_2
XANTENNA__026__I FrameData[26] VDD VDD VSS VSS gf180mcu_fd_sc_mcu7t5v0__antenna
Xoutput38 net38 FrameStrobe_O[14] VDD VDD VSS VSS gf180mcu_fd_sc_mcu7t5v0__buf_4
Xoutput49 net49 FrameStrobe_O[6] VDD VDD VSS VSS gf180mcu_fd_sc_mcu7t5v0__buf_4
Xoutput16 net16 FrameData_O[23] VDD VDD VSS VSS gf180mcu_fd_sc_mcu7t5v0__buf_4
Xoutput27 net27 FrameData_O[4] VDD VDD VSS VSS gf180mcu_fd_sc_mcu7t5v0__buf_4
XFILLER_12_311 VDD VDD VSS VSS gf180mcu_fd_sc_mcu7t5v0__fillcap_4
X_004_ FrameData[4] net27 VDD VDD VSS VSS gf180mcu_fd_sc_mcu7t5v0__buf_2
XPHY_EDGE_ROW_15_Right_15 VDD VSS gf180mcu_fd_sc_mcu7t5v0__endcap
XFILLER_8_167 VDD VDD VSS VSS gf180mcu_fd_sc_mcu7t5v0__fillcap_8
XFILLER_8_101 VDD VDD VSS VSS gf180mcu_fd_sc_mcu7t5v0__fillcap_4
XTAP_TAPCELL_ROW_3_63 VDD VSS gf180mcu_fd_sc_mcu7t5v0__filltie
XFILLER_4_395 VDD VDD VSS VSS gf180mcu_fd_sc_mcu7t5v0__fillcap_8
XFILLER_1_376 VDD VDD VSS VSS gf180mcu_fd_sc_mcu7t5v0__fillcap_4
XANTENNA__034__I FrameStrobe[2] VDD VDD VSS VSS gf180mcu_fd_sc_mcu7t5v0__antenna
XFILLER_13_72 VDD VDD VSS VSS gf180mcu_fd_sc_mcu7t5v0__fillcap_8
XANTENNA__029__I FrameData[29] VDD VDD VSS VSS gf180mcu_fd_sc_mcu7t5v0__antenna
XTAP_TAPCELL_ROW_0_42 VDD VSS gf180mcu_fd_sc_mcu7t5v0__filltie
XFILLER_9_273 VDD VDD VSS VSS gf180mcu_fd_sc_mcu7t5v0__fillcap_4
X_097_ SS4END[6] net104 VDD VDD VSS VSS gf180mcu_fd_sc_mcu7t5v0__buf_2
XFILLER_6_243 VDD VDD VSS VSS gf180mcu_fd_sc_mcu7t5v0__fill_2
X_020_ FrameData[20] net13 VDD VDD VSS VSS gf180mcu_fd_sc_mcu7t5v0__buf_2
XFILLER_3_246 VDD VDD VSS VSS gf180mcu_fd_sc_mcu7t5v0__fillcap_4
XANTENNA__042__I FrameStrobe[10] VDD VDD VSS VSS gf180mcu_fd_sc_mcu7t5v0__antenna
Xoutput17 net17 FrameData_O[24] VDD VDD VSS VSS gf180mcu_fd_sc_mcu7t5v0__buf_4
Xoutput39 net39 FrameStrobe_O[15] VDD VDD VSS VSS gf180mcu_fd_sc_mcu7t5v0__buf_4
Xoutput28 net28 FrameData_O[5] VDD VDD VSS VSS gf180mcu_fd_sc_mcu7t5v0__buf_4
X_003_ FrameData[3] net26 VDD VDD VSS VSS gf180mcu_fd_sc_mcu7t5v0__buf_2
XFILLER_15_172 VDD VDD VSS VSS gf180mcu_fd_sc_mcu7t5v0__fillcap_4
XANTENNA__037__I FrameStrobe[5] VDD VDD VSS VSS gf180mcu_fd_sc_mcu7t5v0__antenna
XFILLER_8_135 VDD VDD VSS VSS gf180mcu_fd_sc_mcu7t5v0__fillcap_16
XFILLER_5_138 VDD VDD VSS VSS gf180mcu_fd_sc_mcu7t5v0__fill_2
XFILLER_9_422 VDD VDD VSS VSS gf180mcu_fd_sc_mcu7t5v0__fill_1
XANTENNA__050__I FrameStrobe[18] VDD VDD VSS VSS gf180mcu_fd_sc_mcu7t5v0__antenna
XTAP_TAPCELL_ROW_0_43 VDD VSS gf180mcu_fd_sc_mcu7t5v0__filltie
XTAP_TAPCELL_ROW_0_32 VDD VSS gf180mcu_fd_sc_mcu7t5v0__filltie
XANTENNA__045__I FrameStrobe[13] VDD VDD VSS VSS gf180mcu_fd_sc_mcu7t5v0__antenna
XFILLER_3_428 VDD VDD VSS VSS gf180mcu_fd_sc_mcu7t5v0__fill_1
X_096_ SS4END[7] net103 VDD VDD VSS VSS gf180mcu_fd_sc_mcu7t5v0__buf_2
XFILLER_3_203 VDD VDD VSS VSS gf180mcu_fd_sc_mcu7t5v0__fillcap_4
Xoutput18 net18 FrameData_O[25] VDD VDD VSS VSS gf180mcu_fd_sc_mcu7t5v0__buf_4
X_079_ S4END[8] net86 VDD VDD VSS VSS gf180mcu_fd_sc_mcu7t5v0__buf_2
XFILLER_0_206 VDD VDD VSS VSS gf180mcu_fd_sc_mcu7t5v0__fillcap_32
Xoutput29 net29 FrameData_O[6] VDD VDD VSS VSS gf180mcu_fd_sc_mcu7t5v0__buf_4
XFILLER_8_317 VDD VDD VSS VSS gf180mcu_fd_sc_mcu7t5v0__fillcap_64
X_002_ FrameData[2] net23 VDD VDD VSS VSS gf180mcu_fd_sc_mcu7t5v0__buf_2
XFILLER_7_53 VDD VDD VSS VSS gf180mcu_fd_sc_mcu7t5v0__fillcap_16
XFILLER_7_42 VDD VDD VSS VSS gf180mcu_fd_sc_mcu7t5v0__fill_1
XANTENNA__053__I S1END[2] VDD VDD VSS VSS gf180mcu_fd_sc_mcu7t5v0__antenna
XPHY_EDGE_ROW_5_Right_5 VDD VSS gf180mcu_fd_sc_mcu7t5v0__endcap
XANTENNA__048__I FrameStrobe[16] VDD VDD VSS VSS gf180mcu_fd_sc_mcu7t5v0__antenna
XFILLER_1_334 VDD VDD VSS VSS gf180mcu_fd_sc_mcu7t5v0__fillcap_4
XFILLER_2_109 VDD VDD VSS VSS gf180mcu_fd_sc_mcu7t5v0__fillcap_32
XFILLER_14_227 VDD VDD VSS VSS gf180mcu_fd_sc_mcu7t5v0__fill_2
XFILLER_13_63 VDD VDD VSS VSS gf180mcu_fd_sc_mcu7t5v0__fillcap_4
XTAP_TAPCELL_ROW_0_44 VDD VSS gf180mcu_fd_sc_mcu7t5v0__filltie
XFILLER_1_142 VDD VDD VSS VSS gf180mcu_fd_sc_mcu7t5v0__fillcap_16
XTAP_TAPCELL_ROW_0_33 VDD VSS gf180mcu_fd_sc_mcu7t5v0__filltie
XFILLER_13_282 VDD VDD VSS VSS gf180mcu_fd_sc_mcu7t5v0__fillcap_32
XFILLER_13_271 VDD VDD VSS VSS gf180mcu_fd_sc_mcu7t5v0__fillcap_8
XTAP_TAPCELL_ROW_9_97 VDD VSS gf180mcu_fd_sc_mcu7t5v0__filltie
XANTENNA__061__I S2MID[2] VDD VDD VSS VSS gf180mcu_fd_sc_mcu7t5v0__antenna
XFILLER_3_418 VDD VDD VSS VSS gf180mcu_fd_sc_mcu7t5v0__fill_2
X_095_ SS4END[8] net102 VDD VDD VSS VSS gf180mcu_fd_sc_mcu7t5v0__buf_2
XFILLER_1_99 VDD VDD VSS VSS gf180mcu_fd_sc_mcu7t5v0__fillcap_16
XFILLER_1_66 VDD VDD VSS VSS gf180mcu_fd_sc_mcu7t5v0__fillcap_4
XFILLER_1_88 VDD VDD VSS VSS gf180mcu_fd_sc_mcu7t5v0__fillcap_8
XFILLER_6_201 VDD VDD VSS VSS gf180mcu_fd_sc_mcu7t5v0__fillcap_4
XANTENNA__056__I S2MID[7] VDD VDD VSS VSS gf180mcu_fd_sc_mcu7t5v0__antenna
XFILLER_10_86 VDD VDD VSS VSS gf180mcu_fd_sc_mcu7t5v0__fillcap_4
XFILLER_10_53 VDD VDD VSS VSS gf180mcu_fd_sc_mcu7t5v0__fillcap_8
X_078_ S4END[9] net85 VDD VDD VSS VSS gf180mcu_fd_sc_mcu7t5v0__buf_2
Xoutput19 net19 FrameData_O[26] VDD VDD VSS VSS gf180mcu_fd_sc_mcu7t5v0__buf_4
X_001_ FrameData[1] net12 VDD VDD VSS VSS gf180mcu_fd_sc_mcu7t5v0__buf_2
XFILLER_7_384 VDD VDD VSS VSS gf180mcu_fd_sc_mcu7t5v0__fillcap_4
XPHY_EDGE_ROW_11_Right_11 VDD VSS gf180mcu_fd_sc_mcu7t5v0__endcap
XFILLER_12_177 VDD VDD VSS VSS gf180mcu_fd_sc_mcu7t5v0__fillcap_4
XFILLER_4_365 VDD VDD VSS VSS gf180mcu_fd_sc_mcu7t5v0__fill_2
XFILLER_7_170 VDD VDD VSS VSS gf180mcu_fd_sc_mcu7t5v0__fillcap_16
XANTENNA__064__I S2END[7] VDD VDD VSS VSS gf180mcu_fd_sc_mcu7t5v0__antenna
XFILLER_1_368 VDD VDD VSS VSS gf180mcu_fd_sc_mcu7t5v0__fillcap_8
XANTENNA__059__I S2MID[4] VDD VDD VSS VSS gf180mcu_fd_sc_mcu7t5v0__antenna
XFILLER_4_77 VDD VDD VSS VSS gf180mcu_fd_sc_mcu7t5v0__fillcap_4
XFILLER_14_239 VDD VDD VSS VSS gf180mcu_fd_sc_mcu7t5v0__fillcap_4
XFILLER_13_250 VDD VDD VSS VSS gf180mcu_fd_sc_mcu7t5v0__fill_2
XFILLER_9_265 VDD VDD VSS VSS gf180mcu_fd_sc_mcu7t5v0__fillcap_8
XTAP_TAPCELL_ROW_9_98 VDD VSS gf180mcu_fd_sc_mcu7t5v0__filltie
XFILLER_8_2 VDD VDD VSS VSS gf180mcu_fd_sc_mcu7t5v0__fillcap_32
XTAP_TAPCELL_ROW_0_34 VDD VSS gf180mcu_fd_sc_mcu7t5v0__filltie
XFILLER_11_209 VDD VDD VSS VSS gf180mcu_fd_sc_mcu7t5v0__fill_1
X_094_ SS4END[9] net101 VDD VDD VSS VSS gf180mcu_fd_sc_mcu7t5v0__buf_2
XANTENNA__072__I S4END[15] VDD VDD VSS VSS gf180mcu_fd_sc_mcu7t5v0__antenna
XFILLER_10_65 VDD VDD VSS VSS gf180mcu_fd_sc_mcu7t5v0__fill_2
XPHY_EDGE_ROW_11_Left_27 VDD VSS gf180mcu_fd_sc_mcu7t5v0__endcap
X_077_ S4END[10] net84 VDD VDD VSS VSS gf180mcu_fd_sc_mcu7t5v0__buf_2
XANTENNA__067__I S2END[4] VDD VDD VSS VSS gf180mcu_fd_sc_mcu7t5v0__antenna
XTAP_TAPCELL_ROW_6_77 VDD VSS gf180mcu_fd_sc_mcu7t5v0__filltie
XFILLER_7_352 VDD VDD VSS VSS gf180mcu_fd_sc_mcu7t5v0__fillcap_32
X_000_ FrameData[0] net1 VDD VDD VSS VSS gf180mcu_fd_sc_mcu7t5v0__buf_2
XTAP_TAPCELL_ROW_14_129 VDD VSS gf180mcu_fd_sc_mcu7t5v0__filltie
XANTENNA__080__I S4END[7] VDD VDD VSS VSS gf180mcu_fd_sc_mcu7t5v0__antenna
XPHY_EDGE_ROW_14_Left_30 VDD VSS gf180mcu_fd_sc_mcu7t5v0__endcap
XFILLER_4_34 VDD VDD VSS VSS gf180mcu_fd_sc_mcu7t5v0__fill_1
XANTENNA__075__I S4END[12] VDD VDD VSS VSS gf180mcu_fd_sc_mcu7t5v0__antenna
XFILLER_9_277 VDD VDD VSS VSS gf180mcu_fd_sc_mcu7t5v0__fill_1
XTAP_TAPCELL_ROW_9_99 VDD VSS gf180mcu_fd_sc_mcu7t5v0__filltie
XFILLER_1_199 VDD VDD VSS VSS gf180mcu_fd_sc_mcu7t5v0__fillcap_8
XFILLER_1_133 VDD VDD VSS VSS gf180mcu_fd_sc_mcu7t5v0__fillcap_4
XTAP_TAPCELL_ROW_0_35 VDD VSS gf180mcu_fd_sc_mcu7t5v0__filltie
X_093_ SS4END[10] net100 VDD VDD VSS VSS gf180mcu_fd_sc_mcu7t5v0__buf_2
XFILLER_6_247 VDD VDD VSS VSS gf180mcu_fd_sc_mcu7t5v0__fillcap_64
X_076_ S4END[11] net83 VDD VDD VSS VSS gf180mcu_fd_sc_mcu7t5v0__buf_2
XTAP_TAPCELL_ROW_6_78 VDD VSS gf180mcu_fd_sc_mcu7t5v0__filltie
XANTENNA__083__I S4END[4] VDD VDD VSS VSS gf180mcu_fd_sc_mcu7t5v0__antenna
X_059_ S2MID[4] net60 VDD VDD VSS VSS gf180mcu_fd_sc_mcu7t5v0__buf_2
XFILLER_11_382 VDD VDD VSS VSS gf180mcu_fd_sc_mcu7t5v0__fill_1
XANTENNA__078__I S4END[9] VDD VDD VSS VSS gf180mcu_fd_sc_mcu7t5v0__antenna
XFILLER_7_34 VDD VDD VSS VSS gf180mcu_fd_sc_mcu7t5v0__fillcap_8
XFILLER_4_312 VDD VDD VSS VSS gf180mcu_fd_sc_mcu7t5v0__fill_2
XPHY_EDGE_ROW_9_Right_9 VDD VSS gf180mcu_fd_sc_mcu7t5v0__endcap
XFILLER_7_194 VDD VDD VSS VSS gf180mcu_fd_sc_mcu7t5v0__fill_2
XFILLER_4_378 VDD VDD VSS VSS gf180mcu_fd_sc_mcu7t5v0__fillcap_4
XFILLER_4_367 VDD VDD VSS VSS gf180mcu_fd_sc_mcu7t5v0__fill_1
XFILLER_1_326 VDD VDD VSS VSS gf180mcu_fd_sc_mcu7t5v0__fillcap_8
XFILLER_13_422 VDD VDD VSS VSS gf180mcu_fd_sc_mcu7t5v0__fillcap_4
XANTENNA__091__I SS4END[12] VDD VDD VSS VSS gf180mcu_fd_sc_mcu7t5v0__antenna
XFILLER_14_219 VDD VDD VSS VSS gf180mcu_fd_sc_mcu7t5v0__fillcap_8
XTAP_TAPCELL_ROW_0_36 VDD VSS gf180mcu_fd_sc_mcu7t5v0__filltie
XFILLER_13_252 VDD VDD VSS VSS gf180mcu_fd_sc_mcu7t5v0__fill_1
XFILLER_13_230 VDD VDD VSS VSS gf180mcu_fd_sc_mcu7t5v0__fillcap_4
XFILLER_9_223 VDD VDD VSS VSS gf180mcu_fd_sc_mcu7t5v0__fillcap_32
XFILLER_9_212 VDD VDD VSS VSS gf180mcu_fd_sc_mcu7t5v0__fill_1
XANTENNA__086__I S4END[1] VDD VDD VSS VSS gf180mcu_fd_sc_mcu7t5v0__antenna