* NGSPICE file created from N_term_DSP.ext - technology: gf180mcuD

* Black-box entry subcircuit for gf180mcu_fd_sc_mcu7t5v0__fillcap_64 abstract view
.subckt gf180mcu_fd_sc_mcu7t5v0__fillcap_64 VDD VNW VPW VSS
.ends

* Black-box entry subcircuit for gf180mcu_fd_sc_mcu7t5v0__filltie abstract view
.subckt gf180mcu_fd_sc_mcu7t5v0__filltie VDD VSS
.ends

* Black-box entry subcircuit for gf180mcu_fd_sc_mcu7t5v0__fill_2 abstract view
.subckt gf180mcu_fd_sc_mcu7t5v0__fill_2 VDD VNW VPW VSS
.ends

* Black-box entry subcircuit for gf180mcu_fd_sc_mcu7t5v0__fill_1 abstract view
.subckt gf180mcu_fd_sc_mcu7t5v0__fill_1 VDD VNW VPW VSS
.ends

* Black-box entry subcircuit for gf180mcu_fd_sc_mcu7t5v0__buf_2 abstract view
.subckt gf180mcu_fd_sc_mcu7t5v0__buf_2 I Z VDD VNW VPW VSS
.ends

* Black-box entry subcircuit for gf180mcu_fd_sc_mcu7t5v0__fillcap_4 abstract view
.subckt gf180mcu_fd_sc_mcu7t5v0__fillcap_4 VDD VNW VPW VSS
.ends

* Black-box entry subcircuit for gf180mcu_fd_sc_mcu7t5v0__fillcap_32 abstract view
.subckt gf180mcu_fd_sc_mcu7t5v0__fillcap_32 VDD VNW VPW VSS
.ends

* Black-box entry subcircuit for gf180mcu_fd_sc_mcu7t5v0__buf_4 abstract view
.subckt gf180mcu_fd_sc_mcu7t5v0__buf_4 I Z VDD VNW VPW VSS
.ends

* Black-box entry subcircuit for gf180mcu_fd_sc_mcu7t5v0__endcap abstract view
.subckt gf180mcu_fd_sc_mcu7t5v0__endcap VDD VSS
.ends

* Black-box entry subcircuit for gf180mcu_fd_sc_mcu7t5v0__fillcap_16 abstract view
.subckt gf180mcu_fd_sc_mcu7t5v0__fillcap_16 VDD VNW VPW VSS
.ends

* Black-box entry subcircuit for gf180mcu_fd_sc_mcu7t5v0__fillcap_8 abstract view
.subckt gf180mcu_fd_sc_mcu7t5v0__fillcap_8 VDD VNW VPW VSS
.ends

* Black-box entry subcircuit for gf180mcu_fd_sc_mcu7t5v0__buf_1 abstract view
.subckt gf180mcu_fd_sc_mcu7t5v0__buf_1 I Z VDD VNW VPW VSS
.ends

.subckt N_term_DSP FrameData[0] FrameData[10] FrameData[11] FrameData[12] FrameData[13]
+ FrameData[14] FrameData[15] FrameData[16] FrameData[17] FrameData[18] FrameData[19]
+ FrameData[1] FrameData[20] FrameData[21] FrameData[22] FrameData[23] FrameData[24]
+ FrameData[25] FrameData[26] FrameData[27] FrameData[28] FrameData[29] FrameData[2]
+ FrameData[30] FrameData[31] FrameData[3] FrameData[4] FrameData[5] FrameData[6]
+ FrameData[7] FrameData[8] FrameData[9] FrameData_O[0] FrameData_O[10] FrameData_O[11]
+ FrameData_O[12] FrameData_O[13] FrameData_O[14] FrameData_O[15] FrameData_O[16]
+ FrameData_O[17] FrameData_O[18] FrameData_O[19] FrameData_O[1] FrameData_O[20] FrameData_O[21]
+ FrameData_O[22] FrameData_O[23] FrameData_O[24] FrameData_O[25] FrameData_O[26]
+ FrameData_O[27] FrameData_O[28] FrameData_O[29] FrameData_O[2] FrameData_O[30] FrameData_O[31]
+ FrameData_O[3] FrameData_O[4] FrameData_O[5] FrameData_O[6] FrameData_O[7] FrameData_O[8]
+ FrameData_O[9] FrameStrobe[0] FrameStrobe[10] FrameStrobe[11] FrameStrobe[12] FrameStrobe[13]
+ FrameStrobe[14] FrameStrobe[15] FrameStrobe[16] FrameStrobe[17] FrameStrobe[18]
+ FrameStrobe[19] FrameStrobe[1] FrameStrobe[2] FrameStrobe[3] FrameStrobe[4] FrameStrobe[5]
+ FrameStrobe[6] FrameStrobe[7] FrameStrobe[8] FrameStrobe[9] FrameStrobe_O[0] FrameStrobe_O[10]
+ FrameStrobe_O[11] FrameStrobe_O[12] FrameStrobe_O[13] FrameStrobe_O[14] FrameStrobe_O[15]
+ FrameStrobe_O[16] FrameStrobe_O[17] FrameStrobe_O[18] FrameStrobe_O[19] FrameStrobe_O[1]
+ FrameStrobe_O[2] FrameStrobe_O[3] FrameStrobe_O[4] FrameStrobe_O[5] FrameStrobe_O[6]
+ FrameStrobe_O[7] FrameStrobe_O[8] FrameStrobe_O[9] N1END[0] N1END[1] N1END[2] N1END[3]
+ N2END[0] N2END[1] N2END[2] N2END[3] N2END[4] N2END[5] N2END[6] N2END[7] N2MID[0]
+ N2MID[1] N2MID[2] N2MID[3] N2MID[4] N2MID[5] N2MID[6] N2MID[7] N4END[0] N4END[10]
+ N4END[11] N4END[12] N4END[13] N4END[14] N4END[15] N4END[1] N4END[2] N4END[3] N4END[4]
+ N4END[5] N4END[6] N4END[7] N4END[8] N4END[9] NN4END[0] NN4END[10] NN4END[11] NN4END[12]
+ NN4END[13] NN4END[14] NN4END[15] NN4END[1] NN4END[2] NN4END[3] NN4END[4] NN4END[5]
+ NN4END[6] NN4END[7] NN4END[8] NN4END[9] S1BEG[0] S1BEG[1] S1BEG[2] S1BEG[3] S2BEG[0]
+ S2BEG[1] S2BEG[2] S2BEG[3] S2BEG[4] S2BEG[5] S2BEG[6] S2BEG[7] S2BEGb[0] S2BEGb[1]
+ S2BEGb[2] S2BEGb[3] S2BEGb[4] S2BEGb[5] S2BEGb[6] S2BEGb[7] S4BEG[0] S4BEG[10] S4BEG[11]
+ S4BEG[12] S4BEG[13] S4BEG[14] S4BEG[15] S4BEG[1] S4BEG[2] S4BEG[3] S4BEG[4] S4BEG[5]
+ S4BEG[6] S4BEG[7] S4BEG[8] S4BEG[9] SS4BEG[0] SS4BEG[10] SS4BEG[11] SS4BEG[12] SS4BEG[13]
+ SS4BEG[14] SS4BEG[15] SS4BEG[1] SS4BEG[2] SS4BEG[3] SS4BEG[4] SS4BEG[5] SS4BEG[6]
+ SS4BEG[7] SS4BEG[8] SS4BEG[9] UserCLK UserCLKo VDD VSS
XFILLER_10_317 VDD VDD VSS VSS gf180mcu_fd_sc_mcu7t5v0__fillcap_64
XTAP_TAPCELL_ROW_15_139 VDD VSS gf180mcu_fd_sc_mcu7t5v0__filltie
XFILLER_10_103 VDD VDD VSS VSS gf180mcu_fd_sc_mcu7t5v0__fill_2
XFILLER_15_206 VDD VDD VSS VSS gf180mcu_fd_sc_mcu7t5v0__fill_1
X_062_ N2MID[1] net63 VDD VDD VSS VSS gf180mcu_fd_sc_mcu7t5v0__buf_2
XFILLER_9_66 VDD VDD VSS VSS gf180mcu_fd_sc_mcu7t5v0__fillcap_4
XFILLER_15_6 VDD VDD VSS VSS gf180mcu_fd_sc_mcu7t5v0__fill_2
X_045_ FrameStrobe[13] net37 VDD VDD VSS VSS gf180mcu_fd_sc_mcu7t5v0__buf_2
X_028_ FrameData[28] net21 VDD VDD VSS VSS gf180mcu_fd_sc_mcu7t5v0__buf_2
XFILLER_6_45 VDD VDD VSS VSS gf180mcu_fd_sc_mcu7t5v0__fillcap_32
Xoutput42 net42 FrameStrobe_O[18] VDD VDD VSS VSS gf180mcu_fd_sc_mcu7t5v0__buf_4
Xoutput20 net20 FrameData_O[27] VDD VDD VSS VSS gf180mcu_fd_sc_mcu7t5v0__buf_4
Xoutput7 net7 FrameData_O[15] VDD VDD VSS VSS gf180mcu_fd_sc_mcu7t5v0__buf_4
Xoutput64 net64 S2BEG[7] VDD VDD VSS VSS gf180mcu_fd_sc_mcu7t5v0__buf_4
Xoutput75 net75 S4BEG[11] VDD VDD VSS VSS gf180mcu_fd_sc_mcu7t5v0__buf_4
XTAP_TAPCELL_ROW_2_57 VDD VSS gf180mcu_fd_sc_mcu7t5v0__filltie
Xoutput53 net53 S1BEG[0] VDD VDD VSS VSS gf180mcu_fd_sc_mcu7t5v0__buf_4
Xoutput86 net86 S4BEG[7] VDD VDD VSS VSS gf180mcu_fd_sc_mcu7t5v0__buf_4
Xoutput97 net97 SS4BEG[2] VDD VDD VSS VSS gf180mcu_fd_sc_mcu7t5v0__buf_4
Xoutput31 net31 FrameData_O[8] VDD VDD VSS VSS gf180mcu_fd_sc_mcu7t5v0__buf_4
XFILLER_8_171 VDD VDD VSS VSS gf180mcu_fd_sc_mcu7t5v0__fillcap_4
XTAP_TAPCELL_ROW_11_110 VDD VSS gf180mcu_fd_sc_mcu7t5v0__filltie
XPHY_EDGE_ROW_12_Right_12 VDD VSS gf180mcu_fd_sc_mcu7t5v0__endcap
XFILLER_14_273 VDD VDD VSS VSS gf180mcu_fd_sc_mcu7t5v0__fillcap_4
XFILLER_7_428 VDD VDD VSS VSS gf180mcu_fd_sc_mcu7t5v0__fill_1
XFILLER_0_36 VDD VDD VSS VSS gf180mcu_fd_sc_mcu7t5v0__fillcap_32
XFILLER_2_177 VDD VDD VSS VSS gf180mcu_fd_sc_mcu7t5v0__fillcap_16
XFILLER_3_2 VDD VDD VSS VSS gf180mcu_fd_sc_mcu7t5v0__fillcap_64
X_061_ N2MID[2] net62 VDD VDD VSS VSS gf180mcu_fd_sc_mcu7t5v0__buf_2
X_044_ FrameStrobe[12] net36 VDD VDD VSS VSS gf180mcu_fd_sc_mcu7t5v0__buf_2
XFILLER_11_276 VDD VDD VSS VSS gf180mcu_fd_sc_mcu7t5v0__fillcap_4
XFILLER_0_456 VDD VDD VSS VSS gf180mcu_fd_sc_mcu7t5v0__fill_1
X_027_ FrameData[27] net20 VDD VDD VSS VSS gf180mcu_fd_sc_mcu7t5v0__buf_2
XFILLER_15_33 VDD VDD VSS VSS gf180mcu_fd_sc_mcu7t5v0__fill_1
XFILLER_13_349 VDD VDD VSS VSS gf180mcu_fd_sc_mcu7t5v0__fill_1
XPHY_EDGE_ROW_6_Right_6 VDD VSS gf180mcu_fd_sc_mcu7t5v0__endcap
Xoutput43 net43 FrameStrobe_O[19] VDD VDD VSS VSS gf180mcu_fd_sc_mcu7t5v0__buf_4
Xoutput21 net21 FrameData_O[28] VDD VDD VSS VSS gf180mcu_fd_sc_mcu7t5v0__buf_4
Xoutput10 net10 FrameData_O[18] VDD VDD VSS VSS gf180mcu_fd_sc_mcu7t5v0__buf_4
Xoutput8 net8 FrameData_O[16] VDD VDD VSS VSS gf180mcu_fd_sc_mcu7t5v0__buf_4
Xoutput76 net76 S4BEG[12] VDD VDD VSS VSS gf180mcu_fd_sc_mcu7t5v0__buf_4
Xoutput65 net65 S2BEGb[0] VDD VDD VSS VSS gf180mcu_fd_sc_mcu7t5v0__buf_4
Xoutput54 net54 S1BEG[1] VDD VDD VSS VSS gf180mcu_fd_sc_mcu7t5v0__buf_4
Xoutput32 net32 FrameData_O[9] VDD VDD VSS VSS gf180mcu_fd_sc_mcu7t5v0__buf_4
Xoutput87 net87 S4BEG[8] VDD VDD VSS VSS gf180mcu_fd_sc_mcu7t5v0__buf_4
Xoutput98 net98 SS4BEG[3] VDD VDD VSS VSS gf180mcu_fd_sc_mcu7t5v0__buf_4
XFILLER_13_135 VDD VDD VSS VSS gf180mcu_fd_sc_mcu7t5v0__fillcap_4
XFILLER_13_124 VDD VDD VSS VSS gf180mcu_fd_sc_mcu7t5v0__fill_2
XTAP_TAPCELL_ROW_14_130 VDD VSS gf180mcu_fd_sc_mcu7t5v0__filltie
XFILLER_12_34 VDD VDD VSS VSS gf180mcu_fd_sc_mcu7t5v0__fill_1
XTAP_TAPCELL_ROW_11_111 VDD VSS gf180mcu_fd_sc_mcu7t5v0__filltie
XFILLER_1_392 VDD VDD VSS VSS gf180mcu_fd_sc_mcu7t5v0__fill_2
XFILLER_5_142 VDD VDD VSS VSS gf180mcu_fd_sc_mcu7t5v0__fillcap_4
XFILLER_14_241 VDD VDD VSS VSS gf180mcu_fd_sc_mcu7t5v0__fillcap_4
X_060_ N2MID[3] net61 VDD VDD VSS VSS gf180mcu_fd_sc_mcu7t5v0__buf_2
X_043_ FrameStrobe[11] net35 VDD VDD VSS VSS gf180mcu_fd_sc_mcu7t5v0__buf_2
XFILLER_15_8 VDD VDD VSS VSS gf180mcu_fd_sc_mcu7t5v0__fill_1
XFILLER_6_270 VDD VDD VSS VSS gf180mcu_fd_sc_mcu7t5v0__fill_1
X_026_ FrameData[26] net19 VDD VDD VSS VSS gf180mcu_fd_sc_mcu7t5v0__buf_2
XFILLER_3_273 VDD VDD VSS VSS gf180mcu_fd_sc_mcu7t5v0__fillcap_4
XFILLER_15_380 VDD VDD VSS VSS gf180mcu_fd_sc_mcu7t5v0__fill_2
XFILLER_15_89 VDD VDD VSS VSS gf180mcu_fd_sc_mcu7t5v0__fillcap_8
XFILLER_15_67 VDD VDD VSS VSS gf180mcu_fd_sc_mcu7t5v0__fill_1
Xoutput44 net44 FrameStrobe_O[1] VDD VDD VSS VSS gf180mcu_fd_sc_mcu7t5v0__buf_4
Xoutput33 net33 FrameStrobe_O[0] VDD VDD VSS VSS gf180mcu_fd_sc_mcu7t5v0__buf_4
Xoutput22 net22 FrameData_O[29] VDD VDD VSS VSS gf180mcu_fd_sc_mcu7t5v0__buf_4
Xoutput11 net11 FrameData_O[19] VDD VDD VSS VSS gf180mcu_fd_sc_mcu7t5v0__buf_4
Xoutput9 net9 FrameData_O[17] VDD VDD VSS VSS gf180mcu_fd_sc_mcu7t5v0__buf_4
Xoutput99 net99 SS4BEG[4] VDD VDD VSS VSS gf180mcu_fd_sc_mcu7t5v0__buf_4
Xoutput88 net88 S4BEG[9] VDD VDD VSS VSS gf180mcu_fd_sc_mcu7t5v0__buf_4
Xoutput66 net66 S2BEGb[1] VDD VDD VSS VSS gf180mcu_fd_sc_mcu7t5v0__buf_4
Xoutput55 net55 S1BEG[2] VDD VDD VSS VSS gf180mcu_fd_sc_mcu7t5v0__buf_4
Xoutput77 net77 S4BEG[13] VDD VDD VSS VSS gf180mcu_fd_sc_mcu7t5v0__buf_4
XFILLER_12_383 VDD VDD VSS VSS gf180mcu_fd_sc_mcu7t5v0__fill_2
XFILLER_11_2 VDD VDD VSS VSS gf180mcu_fd_sc_mcu7t5v0__fillcap_4
XFILLER_8_387 VDD VDD VSS VSS gf180mcu_fd_sc_mcu7t5v0__fillcap_32
X_009_ FrameData[9] net32 VDD VDD VSS VSS gf180mcu_fd_sc_mcu7t5v0__buf_2
XFILLER_13_158 VDD VDD VSS VSS gf180mcu_fd_sc_mcu7t5v0__fillcap_32
XTAP_TAPCELL_ROW_14_131 VDD VSS gf180mcu_fd_sc_mcu7t5v0__filltie
XFILLER_12_191 VDD VDD VSS VSS gf180mcu_fd_sc_mcu7t5v0__fill_1
XFILLER_5_346 VDD VDD VSS VSS gf180mcu_fd_sc_mcu7t5v0__fillcap_4
XTAP_TAPCELL_ROW_11_112 VDD VSS gf180mcu_fd_sc_mcu7t5v0__filltie
XFILLER_11_426 VDD VDD VSS VSS gf180mcu_fd_sc_mcu7t5v0__fill_2
XFILLER_14_286 VDD VDD VSS VSS gf180mcu_fd_sc_mcu7t5v0__fill_2
XFILLER_11_212 VDD VDD VSS VSS gf180mcu_fd_sc_mcu7t5v0__fillcap_64
X_042_ FrameStrobe[10] net34 VDD VDD VSS VSS gf180mcu_fd_sc_mcu7t5v0__buf_2
XPHY_EDGE_ROW_12_Left_28 VDD VSS gf180mcu_fd_sc_mcu7t5v0__endcap
XFILLER_3_400 VDD VDD VSS VSS gf180mcu_fd_sc_mcu7t5v0__fillcap_8
XFILLER_3_422 VDD VDD VSS VSS gf180mcu_fd_sc_mcu7t5v0__fillcap_4
XFILLER_1_92 VDD VDD VSS VSS gf180mcu_fd_sc_mcu7t5v0__fill_1
X_025_ FrameData[25] net18 VDD VDD VSS VSS gf180mcu_fd_sc_mcu7t5v0__buf_2
XFILLER_6_15 VDD VDD VSS VSS gf180mcu_fd_sc_mcu7t5v0__fillcap_16
XTAP_TAPCELL_ROW_6_80 VDD VSS gf180mcu_fd_sc_mcu7t5v0__filltie
Xoutput34 net34 FrameStrobe_O[10] VDD VDD VSS VSS gf180mcu_fd_sc_mcu7t5v0__buf_4
Xoutput45 net45 FrameStrobe_O[2] VDD VDD VSS VSS gf180mcu_fd_sc_mcu7t5v0__buf_4
Xoutput23 net23 FrameData_O[2] VDD VDD VSS VSS gf180mcu_fd_sc_mcu7t5v0__buf_4
Xoutput78 net78 S4BEG[14] VDD VDD VSS VSS gf180mcu_fd_sc_mcu7t5v0__buf_4
Xoutput67 net67 S2BEGb[2] VDD VDD VSS VSS gf180mcu_fd_sc_mcu7t5v0__buf_4
Xoutput56 net56 S1BEG[3] VDD VDD VSS VSS gf180mcu_fd_sc_mcu7t5v0__buf_4
Xoutput12 net12 FrameData_O[1] VDD VDD VSS VSS gf180mcu_fd_sc_mcu7t5v0__buf_4
Xoutput89 net89 SS4BEG[0] VDD VDD VSS VSS gf180mcu_fd_sc_mcu7t5v0__buf_4
XFILLER_8_311 VDD VDD VSS VSS gf180mcu_fd_sc_mcu7t5v0__fillcap_4
X_008_ FrameData[8] net31 VDD VDD VSS VSS gf180mcu_fd_sc_mcu7t5v0__buf_2
XPHY_EDGE_ROW_15_Left_31 VDD VSS gf180mcu_fd_sc_mcu7t5v0__endcap
XFILLER_13_104 VDD VDD VSS VSS gf180mcu_fd_sc_mcu7t5v0__fillcap_16
XTAP_TAPCELL_ROW_14_132 VDD VSS gf180mcu_fd_sc_mcu7t5v0__filltie
XFILLER_13_126 VDD VDD VSS VSS gf180mcu_fd_sc_mcu7t5v0__fill_1
XFILLER_10_107 VDD VDD VSS VSS gf180mcu_fd_sc_mcu7t5v0__fillcap_64
XFILLER_8_185 VDD VDD VSS VSS gf180mcu_fd_sc_mcu7t5v0__fillcap_4
XTAP_TAPCELL_ROW_11_113 VDD VSS gf180mcu_fd_sc_mcu7t5v0__filltie
XPHY_EDGE_ROW_0_Left_16 VDD VSS gf180mcu_fd_sc_mcu7t5v0__endcap
X_041_ FrameStrobe[9] net52 VDD VDD VSS VSS gf180mcu_fd_sc_mcu7t5v0__buf_2
XFILLER_7_228 VDD VDD VSS VSS gf180mcu_fd_sc_mcu7t5v0__fillcap_8
XFILLER_1_2 VDD VDD VSS VSS gf180mcu_fd_sc_mcu7t5v0__fillcap_16
XFILLER_7_206 VDD VDD VSS VSS gf180mcu_fd_sc_mcu7t5v0__fillcap_4
XFILLER_6_261 VDD VDD VSS VSS gf180mcu_fd_sc_mcu7t5v0__fill_1
XFILLER_15_382 VDD VDD VSS VSS gf180mcu_fd_sc_mcu7t5v0__fill_1
X_024_ FrameData[24] net17 VDD VDD VSS VSS gf180mcu_fd_sc_mcu7t5v0__buf_2
XTAP_TAPCELL_ROW_6_81 VDD VSS gf180mcu_fd_sc_mcu7t5v0__filltie
Xoutput35 net35 FrameStrobe_O[11] VDD VDD VSS VSS gf180mcu_fd_sc_mcu7t5v0__buf_4
Xoutput46 net46 FrameStrobe_O[3] VDD VDD VSS VSS gf180mcu_fd_sc_mcu7t5v0__buf_4
Xoutput24 net24 FrameData_O[30] VDD VDD VSS VSS gf180mcu_fd_sc_mcu7t5v0__buf_4
Xoutput13 net13 FrameData_O[20] VDD VDD VSS VSS gf180mcu_fd_sc_mcu7t5v0__buf_4
Xoutput57 net57 S2BEG[0] VDD VDD VSS VSS gf180mcu_fd_sc_mcu7t5v0__buf_4
Xoutput68 net68 S2BEGb[3] VDD VDD VSS VSS gf180mcu_fd_sc_mcu7t5v0__buf_4
Xoutput79 net79 S4BEG[15] VDD VDD VSS VSS gf180mcu_fd_sc_mcu7t5v0__buf_4
X_007_ FrameData[7] net30 VDD VDD VSS VSS gf180mcu_fd_sc_mcu7t5v0__buf_2
XTAP_TAPCELL_ROW_14_133 VDD VSS gf180mcu_fd_sc_mcu7t5v0__filltie
XFILLER_12_171 VDD VDD VSS VSS gf180mcu_fd_sc_mcu7t5v0__fillcap_4
XFILLER_8_197 VDD VDD VSS VSS gf180mcu_fd_sc_mcu7t5v0__fillcap_8
XTAP_TAPCELL_ROW_3_60 VDD VSS gf180mcu_fd_sc_mcu7t5v0__filltie
XFILLER_12_37 VDD VDD VSS VSS gf180mcu_fd_sc_mcu7t5v0__fillcap_64
XTAP_TAPCELL_ROW_11_114 VDD VSS gf180mcu_fd_sc_mcu7t5v0__filltie
XFILLER_1_384 VDD VDD VSS VSS gf180mcu_fd_sc_mcu7t5v0__fillcap_8
XFILLER_5_112 VDD VDD VSS VSS gf180mcu_fd_sc_mcu7t5v0__fillcap_4
XFILLER_5_189 VDD VDD VSS VSS gf180mcu_fd_sc_mcu7t5v0__fillcap_16
XFILLER_11_428 VDD VDD VSS VSS gf180mcu_fd_sc_mcu7t5v0__fill_1
XFILLER_14_288 VDD VDD VSS VSS gf180mcu_fd_sc_mcu7t5v0__fill_1
XFILLER_14_277 VDD VDD VSS VSS gf180mcu_fd_sc_mcu7t5v0__fill_2
XFILLER_14_255 VDD VDD VSS VSS gf180mcu_fd_sc_mcu7t5v0__fill_2
X_040_ FrameStrobe[8] net51 VDD VDD VSS VSS gf180mcu_fd_sc_mcu7t5v0__buf_2
XFILLER_1_72 VDD VDD VSS VSS gf180mcu_fd_sc_mcu7t5v0__fillcap_16
X_023_ FrameData[23] net16 VDD VDD VSS VSS gf180mcu_fd_sc_mcu7t5v0__buf_2
XFILLER_3_243 VDD VDD VSS VSS gf180mcu_fd_sc_mcu7t5v0__fill_2
XTAP_TAPCELL_ROW_6_82 VDD VSS gf180mcu_fd_sc_mcu7t5v0__filltie
XFILLER_15_15 VDD VDD VSS VSS gf180mcu_fd_sc_mcu7t5v0__fillcap_16
Xoutput36 net36 FrameStrobe_O[12] VDD VDD VSS VSS gf180mcu_fd_sc_mcu7t5v0__buf_4
Xoutput47 net47 FrameStrobe_O[4] VDD VDD VSS VSS gf180mcu_fd_sc_mcu7t5v0__buf_4
Xoutput25 net25 FrameData_O[31] VDD VDD VSS VSS gf180mcu_fd_sc_mcu7t5v0__buf_4
Xoutput14 net14 FrameData_O[21] VDD VDD VSS VSS gf180mcu_fd_sc_mcu7t5v0__buf_4
X_006_ FrameData[6] net29 VDD VDD VSS VSS gf180mcu_fd_sc_mcu7t5v0__buf_2
XFILLER_0_268 VDD VDD VSS VSS gf180mcu_fd_sc_mcu7t5v0__fillcap_4
Xoutput69 net69 S2BEGb[4] VDD VDD VSS VSS gf180mcu_fd_sc_mcu7t5v0__buf_4
Xoutput58 net58 S2BEG[1] VDD VDD VSS VSS gf180mcu_fd_sc_mcu7t5v0__buf_4
XFILLER_15_180 VDD VDD VSS VSS gf180mcu_fd_sc_mcu7t5v0__fillcap_4
XFILLER_13_139 VDD VDD VSS VSS gf180mcu_fd_sc_mcu7t5v0__fill_1
XFILLER_5_338 VDD VDD VSS VSS gf180mcu_fd_sc_mcu7t5v0__fillcap_8
XTAP_TAPCELL_ROW_14_134 VDD VSS gf180mcu_fd_sc_mcu7t5v0__filltie
XTAP_TAPCELL_ROW_3_61 VDD VSS gf180mcu_fd_sc_mcu7t5v0__filltie
XFILLER_4_371 VDD VDD VSS VSS gf180mcu_fd_sc_mcu7t5v0__fillcap_8
XTAP_TAPCELL_ROW_11_115 VDD VSS gf180mcu_fd_sc_mcu7t5v0__filltie
XFILLER_1_352 VDD VDD VSS VSS gf180mcu_fd_sc_mcu7t5v0__fillcap_32
XFILLER_5_146 VDD VDD VSS VSS gf180mcu_fd_sc_mcu7t5v0__fill_2
XFILLER_5_135 VDD VDD VSS VSS gf180mcu_fd_sc_mcu7t5v0__fillcap_4
XFILLER_5_157 VDD VDD VSS VSS gf180mcu_fd_sc_mcu7t5v0__fillcap_32
XFILLER_6_422 VDD VDD VSS VSS gf180mcu_fd_sc_mcu7t5v0__fill_2
XFILLER_9_282 VDD VDD VSS VSS gf180mcu_fd_sc_mcu7t5v0__fillcap_64
XFILLER_9_271 VDD VDD VSS VSS gf180mcu_fd_sc_mcu7t5v0__fillcap_8
XFILLER_9_260 VDD VDD VSS VSS gf180mcu_fd_sc_mcu7t5v0__fill_2
XTAP_TAPCELL_ROW_0_40 VDD VSS gf180mcu_fd_sc_mcu7t5v0__filltie
XFILLER_1_171 VDD VDD VSS VSS gf180mcu_fd_sc_mcu7t5v0__fillcap_4
X_099_ NN4END[4] net91 VDD VDD VSS VSS gf180mcu_fd_sc_mcu7t5v0__buf_2
XFILLER_6_241 VDD VDD VSS VSS gf180mcu_fd_sc_mcu7t5v0__fillcap_4
XFILLER_1_40 VDD VDD VSS VSS gf180mcu_fd_sc_mcu7t5v0__fillcap_16
X_022_ FrameData[22] net15 VDD VDD VSS VSS gf180mcu_fd_sc_mcu7t5v0__buf_2
XFILLER_3_277 VDD VDD VSS VSS gf180mcu_fd_sc_mcu7t5v0__fill_2
XTAP_TAPCELL_ROW_6_83 VDD VSS gf180mcu_fd_sc_mcu7t5v0__filltie
Xoutput37 net37 FrameStrobe_O[13] VDD VDD VSS VSS gf180mcu_fd_sc_mcu7t5v0__buf_4
Xoutput48 net48 FrameStrobe_O[5] VDD VDD VSS VSS gf180mcu_fd_sc_mcu7t5v0__buf_4
Xoutput15 net15 FrameData_O[22] VDD VDD VSS VSS gf180mcu_fd_sc_mcu7t5v0__buf_4
XFILLER_12_387 VDD VDD VSS VSS gf180mcu_fd_sc_mcu7t5v0__fillcap_16
Xoutput26 net26 FrameData_O[3] VDD VDD VSS VSS gf180mcu_fd_sc_mcu7t5v0__buf_4
XPHY_EDGE_ROW_1_Right_1 VDD VSS gf180mcu_fd_sc_mcu7t5v0__endcap
Xoutput59 net59 S2BEG[2] VDD VDD VSS VSS gf180mcu_fd_sc_mcu7t5v0__buf_4
XFILLER_11_6 VDD VDD VSS VSS gf180mcu_fd_sc_mcu7t5v0__fill_1
X_005_ FrameData[5] net28 VDD VDD VSS VSS gf180mcu_fd_sc_mcu7t5v0__buf_2
XFILLER_7_50 VDD VDD VSS VSS gf180mcu_fd_sc_mcu7t5v0__fillcap_8
XFILLER_7_72 VDD VDD VSS VSS gf180mcu_fd_sc_mcu7t5v0__fillcap_32
XTAP_TAPCELL_ROW_14_135 VDD VSS gf180mcu_fd_sc_mcu7t5v0__filltie
XFILLER_8_177 VDD VDD VSS VSS gf180mcu_fd_sc_mcu7t5v0__fillcap_8
XFILLER_8_100 VDD VDD VSS VSS gf180mcu_fd_sc_mcu7t5v0__fillcap_4
XTAP_TAPCELL_ROW_3_62 VDD VSS gf180mcu_fd_sc_mcu7t5v0__filltie
XFILLER_4_383 VDD VDD VSS VSS gf180mcu_fd_sc_mcu7t5v0__fill_2
XFILLER_14_279 VDD VDD VSS VSS gf180mcu_fd_sc_mcu7t5v0__fill_1
XFILLER_11_408 VDD VDD VSS VSS gf180mcu_fd_sc_mcu7t5v0__fillcap_4
XTAP_TAPCELL_ROW_0_41 VDD VSS gf180mcu_fd_sc_mcu7t5v0__filltie
XFILLER_1_194 VDD VDD VSS VSS gf180mcu_fd_sc_mcu7t5v0__fill_2
XFILLER_1_150 VDD VDD VSS VSS gf180mcu_fd_sc_mcu7t5v0__fillcap_4
XFILLER_11_205 VDD VDD VSS VSS gf180mcu_fd_sc_mcu7t5v0__fillcap_4
XFILLER_3_426 VDD VDD VSS VSS gf180mcu_fd_sc_mcu7t5v0__fill_2
X_098_ NN4END[5] net90 VDD VDD VSS VSS gf180mcu_fd_sc_mcu7t5v0__buf_2
XFILLER_1_30 VDD VDD VSS VSS gf180mcu_fd_sc_mcu7t5v0__fill_2
X_021_ FrameData[21] net14 VDD VDD VSS VSS gf180mcu_fd_sc_mcu7t5v0__buf_2
XFILLER_3_212 VDD VDD VSS VSS gf180mcu_fd_sc_mcu7t5v0__fillcap_4
XPHY_EDGE_ROW_7_Left_23 VDD VSS gf180mcu_fd_sc_mcu7t5v0__endcap
Xoutput38 net38 FrameStrobe_O[14] VDD VDD VSS VSS gf180mcu_fd_sc_mcu7t5v0__buf_4
Xoutput49 net49 FrameStrobe_O[6] VDD VDD VSS VSS gf180mcu_fd_sc_mcu7t5v0__buf_4
Xoutput16 net16 FrameData_O[23] VDD VDD VSS VSS gf180mcu_fd_sc_mcu7t5v0__buf_4
Xoutput27 net27 FrameData_O[4] VDD VDD VSS VSS gf180mcu_fd_sc_mcu7t5v0__buf_4
X_004_ FrameData[4] net27 VDD VDD VSS VSS gf180mcu_fd_sc_mcu7t5v0__buf_2
XPHY_EDGE_ROW_15_Right_15 VDD VSS gf180mcu_fd_sc_mcu7t5v0__endcap
XFILLER_12_185 VDD VDD VSS VSS gf180mcu_fd_sc_mcu7t5v0__fillcap_4
XTAP_TAPCELL_ROW_3_63 VDD VSS gf180mcu_fd_sc_mcu7t5v0__filltie
XFILLER_5_104 VDD VDD VSS VSS gf180mcu_fd_sc_mcu7t5v0__fillcap_8
XFILLER_5_148 VDD VDD VSS VSS gf180mcu_fd_sc_mcu7t5v0__fill_1
XFILLER_2_107 VDD VDD VSS VSS gf180mcu_fd_sc_mcu7t5v0__fillcap_64
XFILLER_14_247 VDD VDD VSS VSS gf180mcu_fd_sc_mcu7t5v0__fillcap_8
XFILLER_13_72 VDD VDD VSS VSS gf180mcu_fd_sc_mcu7t5v0__fillcap_32
XTAP_TAPCELL_ROW_0_42 VDD VSS gf180mcu_fd_sc_mcu7t5v0__filltie
XFILLER_6_424 VDD VDD VSS VSS gf180mcu_fd_sc_mcu7t5v0__fill_1
XFILLER_9_262 VDD VDD VSS VSS gf180mcu_fd_sc_mcu7t5v0__fill_1
XFILLER_1_64 VDD VDD VSS VSS gf180mcu_fd_sc_mcu7t5v0__fillcap_4
X_097_ NN4END[6] net104 VDD VDD VSS VSS gf180mcu_fd_sc_mcu7t5v0__buf_2
X_020_ FrameData[20] net13 VDD VDD VSS VSS gf180mcu_fd_sc_mcu7t5v0__buf_2
XFILLER_15_397 VDD VDD VSS VSS gf180mcu_fd_sc_mcu7t5v0__fill_2
XFILLER_15_331 VDD VDD VSS VSS gf180mcu_fd_sc_mcu7t5v0__fillcap_8
XFILLER_10_95 VDD VDD VSS VSS gf180mcu_fd_sc_mcu7t5v0__fillcap_8
XFILLER_3_279 VDD VDD VSS VSS gf180mcu_fd_sc_mcu7t5v0__fill_1
Xoutput39 net39 FrameStrobe_O[15] VDD VDD VSS VSS gf180mcu_fd_sc_mcu7t5v0__buf_4
Xoutput17 net17 FrameData_O[24] VDD VDD VSS VSS gf180mcu_fd_sc_mcu7t5v0__buf_4
Xoutput28 net28 FrameData_O[5] VDD VDD VSS VSS gf180mcu_fd_sc_mcu7t5v0__buf_4
XFILLER_12_367 VDD VDD VSS VSS gf180mcu_fd_sc_mcu7t5v0__fillcap_16
X_003_ FrameData[3] net26 VDD VDD VSS VSS gf180mcu_fd_sc_mcu7t5v0__buf_2
XFILLER_15_172 VDD VDD VSS VSS gf180mcu_fd_sc_mcu7t5v0__fillcap_8
XFILLER_5_127 VDD VDD VSS VSS gf180mcu_fd_sc_mcu7t5v0__fillcap_8
XFILLER_5_116 VDD VDD VSS VSS gf180mcu_fd_sc_mcu7t5v0__fill_2
XFILLER_9_422 VDD VDD VSS VSS gf180mcu_fd_sc_mcu7t5v0__fillcap_4
XFILLER_4_171 VDD VDD VSS VSS gf180mcu_fd_sc_mcu7t5v0__fillcap_4
XFILLER_4_193 VDD VDD VSS VSS gf180mcu_fd_sc_mcu7t5v0__fillcap_4
XTAP_TAPCELL_ROW_0_43 VDD VSS gf180mcu_fd_sc_mcu7t5v0__filltie
XFILLER_1_163 VDD VDD VSS VSS gf180mcu_fd_sc_mcu7t5v0__fillcap_8
XTAP_TAPCELL_ROW_0_32 VDD VSS gf180mcu_fd_sc_mcu7t5v0__filltie
XFILLER_6_403 VDD VDD VSS VSS gf180mcu_fd_sc_mcu7t5v0__fill_2
XFILLER_3_428 VDD VDD VSS VSS gf180mcu_fd_sc_mcu7t5v0__fill_1
X_096_ NN4END[7] net103 VDD VDD VSS VSS gf180mcu_fd_sc_mcu7t5v0__buf_2
XFILLER_6_255 VDD VDD VSS VSS gf180mcu_fd_sc_mcu7t5v0__fillcap_4
XFILLER_15_376 VDD VDD VSS VSS gf180mcu_fd_sc_mcu7t5v0__fillcap_4
XFILLER_10_85 VDD VDD VSS VSS gf180mcu_fd_sc_mcu7t5v0__fill_2
Xoutput18 net18 FrameData_O[25] VDD VDD VSS VSS gf180mcu_fd_sc_mcu7t5v0__buf_4
XFILLER_0_206 VDD VDD VSS VSS gf180mcu_fd_sc_mcu7t5v0__fillcap_4
X_079_ N4END[8] net86 VDD VDD VSS VSS gf180mcu_fd_sc_mcu7t5v0__buf_2
Xoutput29 net29 FrameData_O[6] VDD VDD VSS VSS gf180mcu_fd_sc_mcu7t5v0__buf_4
XFILLER_12_335 VDD VDD VSS VSS gf180mcu_fd_sc_mcu7t5v0__fillcap_32
XFILLER_8_317 VDD VDD VSS VSS gf180mcu_fd_sc_mcu7t5v0__fillcap_64
X_002_ FrameData[2] net23 VDD VDD VSS VSS gf180mcu_fd_sc_mcu7t5v0__buf_2
XFILLER_15_184 VDD VDD VSS VSS gf180mcu_fd_sc_mcu7t5v0__fill_1
XFILLER_15_140 VDD VDD VSS VSS gf180mcu_fd_sc_mcu7t5v0__fill_1
XPHY_EDGE_ROW_5_Right_5 VDD VSS gf180mcu_fd_sc_mcu7t5v0__endcap
XFILLER_4_397 VDD VDD VSS VSS gf180mcu_fd_sc_mcu7t5v0__fillcap_16
XFILLER_5_139 VDD VDD VSS VSS gf180mcu_fd_sc_mcu7t5v0__fill_1
XFILLER_1_142 VDD VDD VSS VSS gf180mcu_fd_sc_mcu7t5v0__fillcap_8
XTAP_TAPCELL_ROW_0_33 VDD VSS gf180mcu_fd_sc_mcu7t5v0__filltie
XTAP_TAPCELL_ROW_0_44 VDD VSS gf180mcu_fd_sc_mcu7t5v0__filltie
XFILLER_13_282 VDD VDD VSS VSS gf180mcu_fd_sc_mcu7t5v0__fillcap_32
XFILLER_13_271 VDD VDD VSS VSS gf180mcu_fd_sc_mcu7t5v0__fillcap_8
XTAP_TAPCELL_ROW_9_97 VDD VSS gf180mcu_fd_sc_mcu7t5v0__filltie
XFILLER_1_186 VDD VDD VSS VSS gf180mcu_fd_sc_mcu7t5v0__fillcap_8
XFILLER_1_175 VDD VDD VSS VSS gf180mcu_fd_sc_mcu7t5v0__fill_2
XFILLER_10_241 VDD VDD VSS VSS gf180mcu_fd_sc_mcu7t5v0__fillcap_4
XFILLER_1_88 VDD VDD VSS VSS gf180mcu_fd_sc_mcu7t5v0__fillcap_4
X_095_ NN4END[8] net102 VDD VDD VSS VSS gf180mcu_fd_sc_mcu7t5v0__buf_2
XFILLER_15_399 VDD VDD VSS VSS gf180mcu_fd_sc_mcu7t5v0__fill_1
X_078_ N4END[9] net85 VDD VDD VSS VSS gf180mcu_fd_sc_mcu7t5v0__buf_2
Xoutput19 net19 FrameData_O[26] VDD VDD VSS VSS gf180mcu_fd_sc_mcu7t5v0__buf_4
XFILLER_12_303 VDD VDD VSS VSS gf180mcu_fd_sc_mcu7t5v0__fillcap_4
XFILLER_12_325 VDD VDD VSS VSS gf180mcu_fd_sc_mcu7t5v0__fill_2
X_001_ FrameData[1] net12 VDD VDD VSS VSS gf180mcu_fd_sc_mcu7t5v0__buf_2
XPHY_EDGE_ROW_11_Right_11 VDD VSS gf180mcu_fd_sc_mcu7t5v0__endcap
XFILLER_12_177 VDD VDD VSS VSS gf180mcu_fd_sc_mcu7t5v0__fillcap_8
XFILLER_8_104 VDD VDD VSS VSS gf180mcu_fd_sc_mcu7t5v0__fill_1
XFILLER_4_387 VDD VDD VSS VSS gf180mcu_fd_sc_mcu7t5v0__fill_2
XFILLER_1_346 VDD VDD VSS VSS gf180mcu_fd_sc_mcu7t5v0__fillcap_4
XFILLER_5_118 VDD VDD VSS VSS gf180mcu_fd_sc_mcu7t5v0__fill_1
XFILLER_6_405 VDD VDD VSS VSS gf180mcu_fd_sc_mcu7t5v0__fill_1
XTAP_TAPCELL_ROW_9_98 VDD VSS gf180mcu_fd_sc_mcu7t5v0__filltie
XFILLER_8_2 VDD VDD VSS VSS gf180mcu_fd_sc_mcu7t5v0__fillcap_4
XFILLER_1_154 VDD VDD VSS VSS gf180mcu_fd_sc_mcu7t5v0__fill_1
XTAP_TAPCELL_ROW_0_34 VDD VSS gf180mcu_fd_sc_mcu7t5v0__filltie
XFILLER_11_209 VDD VDD VSS VSS gf180mcu_fd_sc_mcu7t5v0__fill_1
XFILLER_3_408 VDD VDD VSS VSS gf180mcu_fd_sc_mcu7t5v0__fillcap_4
X_094_ NN4END[9] net101 VDD VDD VSS VSS gf180mcu_fd_sc_mcu7t5v0__buf_2
XFILLER_1_56 VDD VDD VSS VSS gf180mcu_fd_sc_mcu7t5v0__fillcap_8
XFILLER_3_216 VDD VDD VSS VSS gf180mcu_fd_sc_mcu7t5v0__fill_1
XFILLER_15_356 VDD VDD VSS VSS gf180mcu_fd_sc_mcu7t5v0__fillcap_4
XPHY_EDGE_ROW_11_Left_27 VDD VSS gf180mcu_fd_sc_mcu7t5v0__endcap
XTAP_TAPCELL_ROW_6_77 VDD VSS gf180mcu_fd_sc_mcu7t5v0__filltie
X_077_ N4END[10] net84 VDD VDD VSS VSS gf180mcu_fd_sc_mcu7t5v0__buf_2
XFILLER_7_352 VDD VDD VSS VSS gf180mcu_fd_sc_mcu7t5v0__fillcap_16
X_000_ FrameData[0] net1 VDD VDD VSS VSS gf180mcu_fd_sc_mcu7t5v0__buf_2
XFILLER_7_396 VDD VDD VSS VSS gf180mcu_fd_sc_mcu7t5v0__fillcap_16
XFILLER_7_385 VDD VDD VSS VSS gf180mcu_fd_sc_mcu7t5v0__fill_2
XTAP_TAPCELL_ROW_14_129 VDD VSS gf180mcu_fd_sc_mcu7t5v0__filltie
XFILLER_12_189 VDD VDD VSS VSS gf180mcu_fd_sc_mcu7t5v0__fill_2
XFILLER_12_101 VDD VDD VSS VSS gf180mcu_fd_sc_mcu7t5v0__fillcap_4
XFILLER_4_311 VDD VDD VSS VSS gf180mcu_fd_sc_mcu7t5v0__fillcap_4
XFILLER_7_182 VDD VDD VSS VSS gf180mcu_fd_sc_mcu7t5v0__fillcap_16
XPHY_EDGE_ROW_14_Left_30 VDD VSS gf180mcu_fd_sc_mcu7t5v0__endcap
XFILLER_4_34 VDD VDD VSS VSS gf180mcu_fd_sc_mcu7t5v0__fill_1
XFILLER_4_163 VDD VDD VSS VSS gf180mcu_fd_sc_mcu7t5v0__fillcap_8
XFILLER_10_402 VDD VDD VSS VSS gf180mcu_fd_sc_mcu7t5v0__fillcap_16
XTAP_TAPCELL_ROW_9_99 VDD VSS gf180mcu_fd_sc_mcu7t5v0__filltie
XFILLER_9_244 VDD VDD VSS VSS gf180mcu_fd_sc_mcu7t5v0__fillcap_16
XFILLER_1_177 VDD VDD VSS VSS gf180mcu_fd_sc_mcu7t5v0__fill_1
XTAP_TAPCELL_ROW_0_35 VDD VSS gf180mcu_fd_sc_mcu7t5v0__filltie
XFILLER_1_133 VDD VDD VSS VSS gf180mcu_fd_sc_mcu7t5v0__fillcap_4
XFILLER_6_247 VDD VDD VSS VSS gf180mcu_fd_sc_mcu7t5v0__fillcap_8
X_093_ NN4END[10] net100 VDD VDD VSS VSS gf180mcu_fd_sc_mcu7t5v0__buf_2
XFILLER_1_68 VDD VDD VSS VSS gf180mcu_fd_sc_mcu7t5v0__fill_2
XFILLER_3_239 VDD VDD VSS VSS gf180mcu_fd_sc_mcu7t5v0__fillcap_4
XTAP_TAPCELL_ROW_6_78 VDD VSS gf180mcu_fd_sc_mcu7t5v0__filltie
X_076_ N4END[11] net83 VDD VDD VSS VSS gf180mcu_fd_sc_mcu7t5v0__buf_2
X_059_ N2MID[4] net60 VDD VDD VSS VSS gf180mcu_fd_sc_mcu7t5v0__buf_2
XFILLER_7_34 VDD VDD VSS VSS gf180mcu_fd_sc_mcu7t5v0__fillcap_16
XPHY_EDGE_ROW_9_Right_9 VDD VSS gf180mcu_fd_sc_mcu7t5v0__endcap
XFILLER_7_150 VDD VDD VSS VSS gf180mcu_fd_sc_mcu7t5v0__fillcap_32
XFILLER_13_422 VDD VDD VSS VSS gf180mcu_fd_sc_mcu7t5v0__fillcap_4
XFILLER_9_426 VDD VDD VSS VSS gf180mcu_fd_sc_mcu7t5v0__fill_1
XFILLER_0_370 VDD VDD VSS VSS gf180mcu_fd_sc_mcu7t5v0__fillcap_4
XFILLER_4_197 VDD VDD VSS VSS gf180mcu_fd_sc_mcu7t5v0__fill_2
XFILLER_13_66 VDD VDD VSS VSS gf180mcu_fd_sc_mcu7t5v0__fillcap_4
XTAP_TAPCELL_ROW_0_36 VDD VSS gf180mcu_fd_sc_mcu7t5v0__filltie
XFILLER_1_101 VDD VDD VSS VSS gf180mcu_fd_sc_mcu7t5v0__fillcap_32
XFILLER_9_212 VDD VDD VSS VSS gf180mcu_fd_sc_mcu7t5v0__fillcap_32
XFILLER_9_201 VDD VDD VSS VSS gf180mcu_fd_sc_mcu7t5v0__fill_1
X_092_ NN4END[11] net99 VDD VDD VSS VSS gf180mcu_fd_sc_mcu7t5v0__buf_2
XFILLER_6_259 VDD VDD VSS VSS gf180mcu_fd_sc_mcu7t5v0__fill_2
X_075_ N4END[12] net82 VDD VDD VSS VSS gf180mcu_fd_sc_mcu7t5v0__buf_2
XTAP_TAPCELL_ROW_6_79 VDD VSS gf180mcu_fd_sc_mcu7t5v0__filltie
XFILLER_12_317 VDD VDD VSS VSS gf180mcu_fd_sc_mcu7t5v0__fillcap_8
XFILLER_15_199 VDD VDD VSS VSS gf180mcu_fd_sc_mcu7t5v0__fillcap_4
XFILLER_15_155 VDD VDD VSS VSS gf180mcu_fd_sc_mcu7t5v0__fill_1
XFILLER_15_133 VDD VDD VSS VSS gf180mcu_fd_sc_mcu7t5v0__fill_2
XFILLER_7_387 VDD VDD VSS VSS gf180mcu_fd_sc_mcu7t5v0__fill_1
X_058_ N2MID[5] net59 VDD VDD VSS VSS gf180mcu_fd_sc_mcu7t5v0__buf_2
XFILLER_8_107 VDD VDD VSS VSS gf180mcu_fd_sc_mcu7t5v0__fillcap_64
XTAP_TAPCELL_ROW_3_58 VDD VSS gf180mcu_fd_sc_mcu7t5v0__filltie
XFILLER_4_379 VDD VDD VSS VSS gf180mcu_fd_sc_mcu7t5v0__fillcap_4
XFILLER_9_416 VDD VDD VSS VSS gf180mcu_fd_sc_mcu7t5v0__fillcap_4
XFILLER_9_405 VDD VDD VSS VSS gf180mcu_fd_sc_mcu7t5v0__fill_2
XTAP_TAPCELL_ROW_0_37 VDD VSS gf180mcu_fd_sc_mcu7t5v0__filltie
XFILLER_9_279 VDD VDD VSS VSS gf180mcu_fd_sc_mcu7t5v0__fill_1
XFILLER_1_26 VDD VDD VSS VSS gf180mcu_fd_sc_mcu7t5v0__fillcap_4
X_091_ NN4END[12] net98 VDD VDD VSS VSS gf180mcu_fd_sc_mcu7t5v0__buf_2
XFILLER_6_2 VDD VDD VSS VSS gf180mcu_fd_sc_mcu7t5v0__fillcap_4
X_074_ N4END[13] net81 VDD VDD VSS VSS gf180mcu_fd_sc_mcu7t5v0__buf_2
XFILLER_15_101 VDD VDD VSS VSS gf180mcu_fd_sc_mcu7t5v0__fill_1
XFILLER_11_384 VDD VDD VSS VSS gf180mcu_fd_sc_mcu7t5v0__fillcap_16
XFILLER_7_377 VDD VDD VSS VSS gf180mcu_fd_sc_mcu7t5v0__fillcap_8
X_057_ N2MID[6] net58 VDD VDD VSS VSS gf180mcu_fd_sc_mcu7t5v0__buf_2
XFILLER_7_58 VDD VDD VSS VSS gf180mcu_fd_sc_mcu7t5v0__fillcap_4
XPHY_EDGE_ROW_0_Right_0 VDD VSS gf180mcu_fd_sc_mcu7t5v0__endcap
XTAP_TAPCELL_ROW_3_59 VDD VSS gf180mcu_fd_sc_mcu7t5v0__filltie
XFILLER_4_37 VDD VDD VSS VSS gf180mcu_fd_sc_mcu7t5v0__fillcap_64
XFILLER_4_177 VDD VDD VSS VSS gf180mcu_fd_sc_mcu7t5v0__fillcap_16
XFILLER_8_6 VDD VDD VSS VSS gf180mcu_fd_sc_mcu7t5v0__fill_1
XTAP_TAPCELL_ROW_0_38 VDD VSS gf180mcu_fd_sc_mcu7t5v0__filltie
XPHY_EDGE_ROW_3_Left_19 VDD VSS gf180mcu_fd_sc_mcu7t5v0__endcap
X_090_ NN4END[13] net97 VDD VDD VSS VSS gf180mcu_fd_sc_mcu7t5v0__buf_2
XFILLER_15_316 VDD VDD VSS VSS gf180mcu_fd_sc_mcu7t5v0__fill_1
XFILLER_10_69 VDD VDD VSS VSS gf180mcu_fd_sc_mcu7t5v0__fillcap_16
X_073_ N4END[14] net80 VDD VDD VSS VSS gf180mcu_fd_sc_mcu7t5v0__buf_2
XFILLER_15_135 VDD VDD VSS VSS gf180mcu_fd_sc_mcu7t5v0__fill_1
XFILLER_11_352 VDD VDD VSS VSS gf180mcu_fd_sc_mcu7t5v0__fillcap_32
XPHY_EDGE_ROW_6_Left_22 VDD VSS gf180mcu_fd_sc_mcu7t5v0__endcap
X_056_ N2MID[7] net57 VDD VDD VSS VSS gf180mcu_fd_sc_mcu7t5v0__buf_2
XFILLER_14_2 VDD VDD VSS VSS gf180mcu_fd_sc_mcu7t5v0__fillcap_8
X_039_ FrameStrobe[7] net50 VDD VDD VSS VSS gf180mcu_fd_sc_mcu7t5v0__buf_2
XFILLER_7_120 VDD VDD VSS VSS gf180mcu_fd_sc_mcu7t5v0__fillcap_8