*SPEF "ieee 1481-1999"
*DESIGN "N_term_single"
*DATE "10:48:57 Friday November 28, 2025"
*VENDOR "The OpenROAD Project"
*PROGRAM "OpenROAD"
*VERSION "341650e72dad0dc8571822ff8c5d9c5e365327f7"
*DESIGN_FLOW "NAME_SCOPE LOCAL" "PIN_CAP NONE"
*DIVIDER /
*DELIMITER :
*BUS_DELIMITER []
*T_UNIT 1 NS
*C_UNIT 1 PF
*R_UNIT 1 OHM
*L_UNIT 1 HENRY

*NAME_MAP
*1 Ci
*2 FrameData[0]
*3 FrameData[10]
*4 FrameData[11]
*5 FrameData[12]
*6 FrameData[13]
*7 FrameData[14]
*8 FrameData[15]
*9 FrameData[16]
*10 FrameData[17]
*11 FrameData[18]
*12 FrameData[19]
*13 FrameData[1]
*14 FrameData[20]
*15 FrameData[21]
*16 FrameData[22]
*17 FrameData[23]
*18 FrameData[24]
*19 FrameData[25]
*20 FrameData[26]
*21 FrameData[27]
*22 FrameData[28]
*23 FrameData[29]
*24 FrameData[2]
*25 FrameData[30]
*26 FrameData[31]
*27 FrameData[3]
*28 FrameData[4]
*29 FrameData[5]
*30 FrameData[6]
*31 FrameData[7]
*32 FrameData[8]
*33 FrameData[9]
*34 FrameData_O[0]
*35 FrameData_O[10]
*36 FrameData_O[11]
*37 FrameData_O[12]
*38 FrameData_O[13]
*39 FrameData_O[14]
*40 FrameData_O[15]
*41 FrameData_O[16]
*42 FrameData_O[17]
*43 FrameData_O[18]
*44 FrameData_O[19]
*45 FrameData_O[1]
*46 FrameData_O[20]
*47 FrameData_O[21]
*48 FrameData_O[22]
*49 FrameData_O[23]
*50 FrameData_O[24]
*51 FrameData_O[25]
*52 FrameData_O[26]
*53 FrameData_O[27]
*54 FrameData_O[28]
*55 FrameData_O[29]
*56 FrameData_O[2]
*57 FrameData_O[30]
*58 FrameData_O[31]
*59 FrameData_O[3]
*60 FrameData_O[4]
*61 FrameData_O[5]
*62 FrameData_O[6]
*63 FrameData_O[7]
*64 FrameData_O[8]
*65 FrameData_O[9]
*66 FrameStrobe[0]
*67 FrameStrobe[10]
*68 FrameStrobe[11]
*69 FrameStrobe[12]
*70 FrameStrobe[13]
*71 FrameStrobe[14]
*72 FrameStrobe[15]
*73 FrameStrobe[16]
*74 FrameStrobe[17]
*75 FrameStrobe[18]
*76 FrameStrobe[19]
*77 FrameStrobe[1]
*78 FrameStrobe[2]
*79 FrameStrobe[3]
*80 FrameStrobe[4]
*81 FrameStrobe[5]
*82 FrameStrobe[6]
*83 FrameStrobe[7]
*84 FrameStrobe[8]
*85 FrameStrobe[9]
*86 FrameStrobe_O[0]
*87 FrameStrobe_O[10]
*88 FrameStrobe_O[11]
*89 FrameStrobe_O[12]
*90 FrameStrobe_O[13]
*91 FrameStrobe_O[14]
*92 FrameStrobe_O[15]
*93 FrameStrobe_O[16]
*94 FrameStrobe_O[17]
*95 FrameStrobe_O[18]
*96 FrameStrobe_O[19]
*97 FrameStrobe_O[1]
*98 FrameStrobe_O[2]
*99 FrameStrobe_O[3]
*100 FrameStrobe_O[4]
*101 FrameStrobe_O[5]
*102 FrameStrobe_O[6]
*103 FrameStrobe_O[7]
*104 FrameStrobe_O[8]
*105 FrameStrobe_O[9]
*106 N1END[0]
*107 N1END[1]
*108 N1END[2]
*109 N1END[3]
*110 N2END[0]
*111 N2END[1]
*112 N2END[2]
*113 N2END[3]
*114 N2END[4]
*115 N2END[5]
*116 N2END[6]
*117 N2END[7]
*118 N2MID[0]
*119 N2MID[1]
*120 N2MID[2]
*121 N2MID[3]
*122 N2MID[4]
*123 N2MID[5]
*124 N2MID[6]
*125 N2MID[7]
*126 N4END[0]
*127 N4END[10]
*128 N4END[11]
*129 N4END[12]
*130 N4END[13]
*131 N4END[14]
*132 N4END[15]
*133 N4END[1]
*134 N4END[2]
*135 N4END[3]
*136 N4END[4]
*137 N4END[5]
*138 N4END[6]
*139 N4END[7]
*140 N4END[8]
*141 N4END[9]
*142 NN4END[0]
*143 NN4END[10]
*144 NN4END[11]
*145 NN4END[12]
*146 NN4END[13]
*147 NN4END[14]
*148 NN4END[15]
*149 NN4END[1]
*150 NN4END[2]
*151 NN4END[3]
*152 NN4END[4]
*153 NN4END[5]
*154 NN4END[6]
*155 NN4END[7]
*156 NN4END[8]
*157 NN4END[9]
*158 S1BEG[0]
*159 S1BEG[1]
*160 S1BEG[2]
*161 S1BEG[3]
*162 S2BEG[0]
*163 S2BEG[1]
*164 S2BEG[2]
*165 S2BEG[3]
*166 S2BEG[4]
*167 S2BEG[5]
*168 S2BEG[6]
*169 S2BEG[7]
*170 S2BEGb[0]
*171 S2BEGb[1]
*172 S2BEGb[2]
*173 S2BEGb[3]
*174 S2BEGb[4]
*175 S2BEGb[5]
*176 S2BEGb[6]
*177 S2BEGb[7]
*178 S4BEG[0]
*179 S4BEG[10]
*180 S4BEG[11]
*181 S4BEG[12]
*182 S4BEG[13]
*183 S4BEG[14]
*184 S4BEG[15]
*185 S4BEG[1]
*186 S4BEG[2]
*187 S4BEG[3]
*188 S4BEG[4]
*189 S4BEG[5]
*190 S4BEG[6]
*191 S4BEG[7]
*192 S4BEG[8]
*193 S4BEG[9]
*194 SS4BEG[0]
*195 SS4BEG[10]
*196 SS4BEG[11]
*197 SS4BEG[12]
*198 SS4BEG[13]
*199 SS4BEG[14]
*200 SS4BEG[15]
*201 SS4BEG[1]
*202 SS4BEG[2]
*203 SS4BEG[3]
*204 SS4BEG[4]
*205 SS4BEG[5]
*206 SS4BEG[6]
*207 SS4BEG[7]
*208 SS4BEG[8]
*209 SS4BEG[9]
*210 UserCLK
*211 UserCLKo
*214 net1
*215 net10
*216 net100
*217 net101
*218 net102
*219 net103
*220 net104
*221 net105
*222 net11
*223 net12
*224 net13
*225 net14
*226 net15
*227 net16
*228 net17
*229 net18
*230 net19
*231 net2
*232 net20
*233 net21
*234 net22
*235 net23
*236 net24
*237 net25
*238 net26
*239 net27
*240 net28
*241 net29
*242 net3
*243 net30
*244 net31
*245 net32
*246 net33
*247 net34
*248 net35
*249 net36
*250 net37
*251 net38
*252 net39
*253 net4
*254 net40
*255 net41
*256 net42
*257 net43
*258 net44
*259 net45
*260 net46
*261 net47
*262 net48
*263 net49
*264 net5
*265 net50
*266 net51
*267 net52
*268 net53
*269 net54
*270 net55
*271 net56
*272 net57
*273 net58
*274 net59
*275 net6
*276 net60
*277 net61
*278 net62
*279 net63
*280 net64
*281 net65
*282 net66
*283 net67
*284 net68
*285 net69
*286 net7
*287 net70
*288 net71
*289 net72
*290 net73
*291 net74
*292 net75
*293 net76
*294 net77
*295 net78
*296 net79
*297 net8
*298 net80
*299 net81
*300 net82
*301 net83
*302 net84
*303 net85
*304 net86
*305 net87
*306 net88
*307 net89
*308 net9
*309 net90
*310 net91
*311 net92
*312 net93
*313 net94
*314 net95
*315 net96
*316 net97
*317 net98
*318 net99
*319 FILLER_0_104
*320 FILLER_0_138
*321 FILLER_0_172
*322 FILLER_0_188
*323 FILLER_0_2
*324 FILLER_0_206
*325 FILLER_0_240
*326 FILLER_0_242
*327 FILLER_0_271
*328 FILLER_0_302
*329 FILLER_0_336
*330 FILLER_0_36
*331 FILLER_0_370
*332 FILLER_0_404
*333 FILLER_0_438
*334 FILLER_0_444
*335 FILLER_0_478
*336 FILLER_0_482
*337 FILLER_0_484
*338 FILLER_0_70
*339 FILLER_10_10
*340 FILLER_10_101
*341 FILLER_10_107
*342 FILLER_10_171
*343 FILLER_10_177
*344 FILLER_10_193
*345 FILLER_10_2
*346 FILLER_10_203
*347 FILLER_10_219
*348 FILLER_10_22
*349 FILLER_10_229
*350 FILLER_10_255
*351 FILLER_10_287
*352 FILLER_10_30
*353 FILLER_10_303
*354 FILLER_10_311
*355 FILLER_10_317
*356 FILLER_10_34
*357 FILLER_10_349
*358 FILLER_10_357
*359 FILLER_10_359
*360 FILLER_10_368
*361 FILLER_10_37
*362 FILLER_10_384
*363 FILLER_10_395
*364 FILLER_10_427
*365 FILLER_10_443
*366 FILLER_10_451
*367 FILLER_10_457
*368 FILLER_10_465
*369 FILLER_10_469
*370 FILLER_11_136
*371 FILLER_11_142
*372 FILLER_11_158
*373 FILLER_11_174
*374 FILLER_11_2
*375 FILLER_11_206
*376 FILLER_11_212
*377 FILLER_11_276
*378 FILLER_11_282
*379 FILLER_11_292
*380 FILLER_11_300
*381 FILLER_11_310
*382 FILLER_11_342
*383 FILLER_11_352
*384 FILLER_11_416
*385 FILLER_11_422
*386 FILLER_11_454
*387 FILLER_11_492
*388 FILLER_11_496
*389 FILLER_11_498
*390 FILLER_11_66
*391 FILLER_11_72
*392 FILLER_12_101
*393 FILLER_12_107
*394 FILLER_12_171
*395 FILLER_12_177
*396 FILLER_12_2
*397 FILLER_12_241
*398 FILLER_12_247
*399 FILLER_12_257
*400 FILLER_12_265
*401 FILLER_12_267
*402 FILLER_12_276
*403 FILLER_12_292
*404 FILLER_12_300
*405 FILLER_12_309
*406 FILLER_12_313
*407 FILLER_12_317
*408 FILLER_12_325
*409 FILLER_12_329
*410 FILLER_12_331
*411 FILLER_12_34
*412 FILLER_12_340
*413 FILLER_12_37
*414 FILLER_12_372
*415 FILLER_12_380
*416 FILLER_12_384
*417 FILLER_12_387
*418 FILLER_12_451
*419 FILLER_13_104
*420 FILLER_13_128
*421 FILLER_13_136
*422 FILLER_13_142
*423 FILLER_13_150
*424 FILLER_13_154
*425 FILLER_13_163
*426 FILLER_13_195
*427 FILLER_13_2
*428 FILLER_13_203
*429 FILLER_13_207
*430 FILLER_13_209
*431 FILLER_13_220
*432 FILLER_13_252
*433 FILLER_13_268
*434 FILLER_13_276
*435 FILLER_13_282
*436 FILLER_13_298
*437 FILLER_13_314
*438 FILLER_13_346
*439 FILLER_13_352
*440 FILLER_13_384
*441 FILLER_13_400
*442 FILLER_13_408
*443 FILLER_13_422
*444 FILLER_13_438
*445 FILLER_13_446
*446 FILLER_13_492
*447 FILLER_13_496
*448 FILLER_13_498
*449 FILLER_13_66
*450 FILLER_13_72
*451 FILLER_14_102
*452 FILLER_14_104
*453 FILLER_14_107
*454 FILLER_14_145
*455 FILLER_14_161
*456 FILLER_14_169
*457 FILLER_14_173
*458 FILLER_14_185
*459 FILLER_14_189
*460 FILLER_14_191
*461 FILLER_14_2
*462 FILLER_14_200
*463 FILLER_14_210
*464 FILLER_14_218
*465 FILLER_14_220
*466 FILLER_14_237
*467 FILLER_14_255
*468 FILLER_14_259
*469 FILLER_14_261
*470 FILLER_14_270
*471 FILLER_14_278
*472 FILLER_14_290
*473 FILLER_14_298
*474 FILLER_14_313
*475 FILLER_14_317
*476 FILLER_14_321
*477 FILLER_14_323
*478 FILLER_14_332
*479 FILLER_14_34
*480 FILLER_14_348
*481 FILLER_14_357
*482 FILLER_14_37
*483 FILLER_14_373
*484 FILLER_14_381
*485 FILLER_14_387
*486 FILLER_14_397
*487 FILLER_14_405
*488 FILLER_14_409
*489 FILLER_14_419
*490 FILLER_14_443
*491 FILLER_14_451
*492 FILLER_14_69
*493 FILLER_14_85
*494 FILLER_14_94
*495 FILLER_15_10
*496 FILLER_15_101
*497 FILLER_15_104
*498 FILLER_15_106
*499 FILLER_15_121
*500 FILLER_15_129
*501 FILLER_15_133
*502 FILLER_15_135
*503 FILLER_15_138
*504 FILLER_15_154
*505 FILLER_15_169
*506 FILLER_15_17
*507 FILLER_15_172
*508 FILLER_15_176
*509 FILLER_15_178
*510 FILLER_15_193
*511 FILLER_15_2
*512 FILLER_15_201
*513 FILLER_15_203
*514 FILLER_15_220
*515 FILLER_15_240
*516 FILLER_15_248
*517 FILLER_15_250
*518 FILLER_15_265
*519 FILLER_15_269
*520 FILLER_15_271
*521 FILLER_15_274
*522 FILLER_15_289
*523 FILLER_15_305
*524 FILLER_15_308
*525 FILLER_15_316
*526 FILLER_15_320
*527 FILLER_15_322
*528 FILLER_15_33
*529 FILLER_15_337
*530 FILLER_15_339
*531 FILLER_15_342
*532 FILLER_15_346
*533 FILLER_15_361
*534 FILLER_15_369
*535 FILLER_15_373
*536 FILLER_15_390
*537 FILLER_15_410
*538 FILLER_15_418
*539 FILLER_15_433
*540 FILLER_15_441
*541 FILLER_15_458
*542 FILLER_15_478
*543 FILLER_15_482
*544 FILLER_15_484
*545 FILLER_15_50
*546 FILLER_15_70
*547 FILLER_15_78
*548 FILLER_15_82
*549 FILLER_15_97
*550 FILLER_1_118
*551 FILLER_1_134
*552 FILLER_1_138
*553 FILLER_1_142
*554 FILLER_1_158
*555 FILLER_1_16
*556 FILLER_1_162
*557 FILLER_1_172
*558 FILLER_1_176
*559 FILLER_1_178
*560 FILLER_1_187
*561 FILLER_1_2
*562 FILLER_1_212
*563 FILLER_1_216
*564 FILLER_1_267
*565 FILLER_1_271
*566 FILLER_1_346
*567 FILLER_1_416
*568 FILLER_1_458
*569 FILLER_1_48
*570 FILLER_1_492
*571 FILLER_1_496
*572 FILLER_1_498
*573 FILLER_1_6
*574 FILLER_1_64
*575 FILLER_1_68
*576 FILLER_1_72
*577 FILLER_1_76
*578 FILLER_1_86
*579 FILLER_2_101
*580 FILLER_2_107
*581 FILLER_2_115
*582 FILLER_2_124
*583 FILLER_2_140
*584 FILLER_2_144
*585 FILLER_2_146
*586 FILLER_2_155
*587 FILLER_2_171
*588 FILLER_2_177
*589 FILLER_2_2
*590 FILLER_2_209
*591 FILLER_2_247
*592 FILLER_2_34
*593 FILLER_2_37
*594 FILLER_2_373
*595 FILLER_2_443
*596 FILLER_3_136
*597 FILLER_3_142
*598 FILLER_3_174
*599 FILLER_3_190
*600 FILLER_3_198
*601 FILLER_3_2
*602 FILLER_3_220
*603 FILLER_3_224
*604 FILLER_3_247
*605 FILLER_3_279
*606 FILLER_3_296
*607 FILLER_3_300
*608 FILLER_3_315
*609 FILLER_3_345
*610 FILLER_3_349
*611 FILLER_3_416
*612 FILLER_3_422
*613 FILLER_3_440
*614 FILLER_3_444
*615 FILLER_3_492
*616 FILLER_3_496
*617 FILLER_3_498
*618 FILLER_3_66
*619 FILLER_3_72
*620 FILLER_4_10
*621 FILLER_4_107
*622 FILLER_4_139
*623 FILLER_4_14
*624 FILLER_4_147
*625 FILLER_4_151
*626 FILLER_4_153
*627 FILLER_4_162
*628 FILLER_4_170
*629 FILLER_4_174
*630 FILLER_4_177
*631 FILLER_4_193
*632 FILLER_4_2
*633 FILLER_4_201
*634 FILLER_4_205
*635 FILLER_4_214
*636 FILLER_4_230
*637 FILLER_4_238
*638 FILLER_4_24
*639 FILLER_4_242
*640 FILLER_4_244
*641 FILLER_4_247
*642 FILLER_4_279
*643 FILLER_4_291
*644 FILLER_4_32
*645 FILLER_4_325
*646 FILLER_4_34
*647 FILLER_4_341
*648 FILLER_4_351
*649 FILLER_4_359
*650 FILLER_4_37
*651 FILLER_4_371
*652 FILLER_4_379
*653 FILLER_4_383
*654 FILLER_4_387
*655 FILLER_4_391
*656 FILLER_4_393
*657 FILLER_4_402
*658 FILLER_4_406
*659 FILLER_4_408
*660 FILLER_4_423
*661 FILLER_4_457
*662 FILLER_4_461
*663 FILLER_4_69
*664 FILLER_4_77
*665 FILLER_4_81
*666 FILLER_4_91
*667 FILLER_4_95
*668 FILLER_5_125
*669 FILLER_5_133
*670 FILLER_5_137
*671 FILLER_5_139
*672 FILLER_5_142
*673 FILLER_5_158
*674 FILLER_5_175
*675 FILLER_5_2
*676 FILLER_5_207
*677 FILLER_5_209
*678 FILLER_5_212
*679 FILLER_5_244
*680 FILLER_5_248
*681 FILLER_5_250
*682 FILLER_5_267
*683 FILLER_5_275
*684 FILLER_5_279
*685 FILLER_5_290
*686 FILLER_5_298
*687 FILLER_5_310
*688 FILLER_5_326
*689 FILLER_5_334
*690 FILLER_5_336
*691 FILLER_5_345
*692 FILLER_5_349
*693 FILLER_5_352
*694 FILLER_5_368
*695 FILLER_5_372
*696 FILLER_5_381
*697 FILLER_5_397
*698 FILLER_5_405
*699 FILLER_5_409
*700 FILLER_5_411
*701 FILLER_5_422
*702 FILLER_5_454
*703 FILLER_5_458
*704 FILLER_5_492
*705 FILLER_5_496
*706 FILLER_5_498
*707 FILLER_5_66
*708 FILLER_5_72
*709 FILLER_5_80
*710 FILLER_5_84
*711 FILLER_5_93
*712 FILLER_6_101
*713 FILLER_6_107
*714 FILLER_6_115
*715 FILLER_6_119
*716 FILLER_6_128
*717 FILLER_6_136
*718 FILLER_6_140
*719 FILLER_6_149
*720 FILLER_6_165
*721 FILLER_6_173
*722 FILLER_6_177
*723 FILLER_6_193
*724 FILLER_6_2
*725 FILLER_6_201
*726 FILLER_6_205
*727 FILLER_6_222
*728 FILLER_6_238
*729 FILLER_6_242
*730 FILLER_6_244
*731 FILLER_6_247
*732 FILLER_6_279
*733 FILLER_6_295
*734 FILLER_6_303
*735 FILLER_6_317
*736 FILLER_6_325
*737 FILLER_6_334
*738 FILLER_6_34
*739 FILLER_6_358
*740 FILLER_6_37
*741 FILLER_6_374
*742 FILLER_6_382
*743 FILLER_6_384
*744 FILLER_6_387
*745 FILLER_6_403
*746 FILLER_6_407
*747 FILLER_6_417
*748 FILLER_6_433
*749 FILLER_6_442
*750 FILLER_6_450
*751 FILLER_6_454
*752 FILLER_6_457
*753 FILLER_6_465
*754 FILLER_6_469
*755 FILLER_7_104
*756 FILLER_7_120
*757 FILLER_7_128
*758 FILLER_7_142
*759 FILLER_7_2
*760 FILLER_7_206
*761 FILLER_7_212
*762 FILLER_7_228
*763 FILLER_7_237
*764 FILLER_7_269
*765 FILLER_7_277
*766 FILLER_7_279
*767 FILLER_7_282
*768 FILLER_7_346
*769 FILLER_7_352
*770 FILLER_7_368
*771 FILLER_7_376
*772 FILLER_7_378
*773 FILLER_7_387
*774 FILLER_7_391
*775 FILLER_7_401
*776 FILLER_7_417
*777 FILLER_7_419
*778 FILLER_7_422
*779 FILLER_7_454
*780 FILLER_7_470
*781 FILLER_7_474
*782 FILLER_7_492
*783 FILLER_7_496
*784 FILLER_7_498
*785 FILLER_7_66
*786 FILLER_7_72
*787 FILLER_8_102
*788 FILLER_8_104
*789 FILLER_8_107
*790 FILLER_8_171
*791 FILLER_8_177
*792 FILLER_8_187
*793 FILLER_8_2
*794 FILLER_8_219
*795 FILLER_8_223
*796 FILLER_8_232
*797 FILLER_8_240
*798 FILLER_8_244
*799 FILLER_8_247
*800 FILLER_8_279
*801 FILLER_8_295
*802 FILLER_8_303
*803 FILLER_8_305
*804 FILLER_8_314
*805 FILLER_8_317
*806 FILLER_8_34
*807 FILLER_8_37
*808 FILLER_8_381
*809 FILLER_8_387
*810 FILLER_8_451
*811 FILLER_8_457
*812 FILLER_8_465
*813 FILLER_8_469
*814 FILLER_8_49
*815 FILLER_8_65
*816 FILLER_8_73
*817 FILLER_8_82
*818 FILLER_8_98
*819 FILLER_9_136
*820 FILLER_9_142
*821 FILLER_9_150
*822 FILLER_9_159
*823 FILLER_9_191
*824 FILLER_9_2
*825 FILLER_9_201
*826 FILLER_9_209
*827 FILLER_9_212
*828 FILLER_9_244
*829 FILLER_9_252
*830 FILLER_9_262
*831 FILLER_9_266
*832 FILLER_9_275
*833 FILLER_9_279
*834 FILLER_9_282
*835 FILLER_9_346
*836 FILLER_9_352
*837 FILLER_9_368
*838 FILLER_9_376
*839 FILLER_9_380
*840 FILLER_9_390
*841 FILLER_9_406
*842 FILLER_9_414
*843 FILLER_9_418
*844 FILLER_9_422
*845 FILLER_9_454
*846 FILLER_9_470
*847 FILLER_9_474
*848 FILLER_9_492
*849 FILLER_9_496
*850 FILLER_9_498
*851 FILLER_9_66
*852 FILLER_9_72
*853 PHY_EDGE_ROW_0_Left_16
*854 PHY_EDGE_ROW_0_Right_0
*855 PHY_EDGE_ROW_10_Left_26
*856 PHY_EDGE_ROW_10_Right_10
*857 PHY_EDGE_ROW_11_Left_27
*858 PHY_EDGE_ROW_11_Right_11
*859 PHY_EDGE_ROW_12_Left_28
*860 PHY_EDGE_ROW_12_Right_12
*861 PHY_EDGE_ROW_13_Left_29
*862 PHY_EDGE_ROW_13_Right_13
*863 PHY_EDGE_ROW_14_Left_30
*864 PHY_EDGE_ROW_14_Right_14
*865 PHY_EDGE_ROW_15_Left_31
*866 PHY_EDGE_ROW_15_Right_15
*867 PHY_EDGE_ROW_1_Left_17
*868 PHY_EDGE_ROW_1_Right_1
*869 PHY_EDGE_ROW_2_Left_18
*870 PHY_EDGE_ROW_2_Right_2
*871 PHY_EDGE_ROW_3_Left_19
*872 PHY_EDGE_ROW_3_Right_3
*873 PHY_EDGE_ROW_4_Left_20
*874 PHY_EDGE_ROW_4_Right_4
*875 PHY_EDGE_ROW_5_Left_21
*876 PHY_EDGE_ROW_5_Right_5
*877 PHY_EDGE_ROW_6_Left_22
*878 PHY_EDGE_ROW_6_Right_6
*879 PHY_EDGE_ROW_7_Left_23
*880 PHY_EDGE_ROW_7_Right_7
*881 PHY_EDGE_ROW_8_Left_24
*882 PHY_EDGE_ROW_8_Right_8
*883 PHY_EDGE_ROW_9_Left_25
*884 PHY_EDGE_ROW_9_Right_9
*885 TAP_TAPCELL_ROW_0_32
*886 TAP_TAPCELL_ROW_0_33
*887 TAP_TAPCELL_ROW_0_34
*888 TAP_TAPCELL_ROW_0_35
*889 TAP_TAPCELL_ROW_0_36
*890 TAP_TAPCELL_ROW_0_37
*891 TAP_TAPCELL_ROW_0_38
*892 TAP_TAPCELL_ROW_0_39
*893 TAP_TAPCELL_ROW_0_40
*894 TAP_TAPCELL_ROW_0_41
*895 TAP_TAPCELL_ROW_0_42
*896 TAP_TAPCELL_ROW_0_43
*897 TAP_TAPCELL_ROW_0_44
*898 TAP_TAPCELL_ROW_0_45
*899 TAP_TAPCELL_ROW_10_109
*900 TAP_TAPCELL_ROW_10_110
*901 TAP_TAPCELL_ROW_10_111
*902 TAP_TAPCELL_ROW_10_112
*903 TAP_TAPCELL_ROW_10_113
*904 TAP_TAPCELL_ROW_10_114
*905 TAP_TAPCELL_ROW_10_115
*906 TAP_TAPCELL_ROW_11_116
*907 TAP_TAPCELL_ROW_11_117
*908 TAP_TAPCELL_ROW_11_118
*909 TAP_TAPCELL_ROW_11_119
*910 TAP_TAPCELL_ROW_11_120
*911 TAP_TAPCELL_ROW_11_121
*912 TAP_TAPCELL_ROW_11_122
*913 TAP_TAPCELL_ROW_12_123
*914 TAP_TAPCELL_ROW_12_124
*915 TAP_TAPCELL_ROW_12_125
*916 TAP_TAPCELL_ROW_12_126
*917 TAP_TAPCELL_ROW_12_127
*918 TAP_TAPCELL_ROW_12_128
*919 TAP_TAPCELL_ROW_12_129
*920 TAP_TAPCELL_ROW_13_130
*921 TAP_TAPCELL_ROW_13_131
*922 TAP_TAPCELL_ROW_13_132
*923 TAP_TAPCELL_ROW_13_133
*924 TAP_TAPCELL_ROW_13_134
*925 TAP_TAPCELL_ROW_13_135
*926 TAP_TAPCELL_ROW_13_136
*927 TAP_TAPCELL_ROW_14_137
*928 TAP_TAPCELL_ROW_14_138
*929 TAP_TAPCELL_ROW_14_139
*930 TAP_TAPCELL_ROW_14_140
*931 TAP_TAPCELL_ROW_14_141
*932 TAP_TAPCELL_ROW_14_142
*933 TAP_TAPCELL_ROW_14_143
*934 TAP_TAPCELL_ROW_15_144
*935 TAP_TAPCELL_ROW_15_145
*936 TAP_TAPCELL_ROW_15_146
*937 TAP_TAPCELL_ROW_15_147
*938 TAP_TAPCELL_ROW_15_148
*939 TAP_TAPCELL_ROW_15_149
*940 TAP_TAPCELL_ROW_15_150
*941 TAP_TAPCELL_ROW_15_151
*942 TAP_TAPCELL_ROW_15_152
*943 TAP_TAPCELL_ROW_15_153
*944 TAP_TAPCELL_ROW_15_154
*945 TAP_TAPCELL_ROW_15_155
*946 TAP_TAPCELL_ROW_15_156
*947 TAP_TAPCELL_ROW_15_157
*948 TAP_TAPCELL_ROW_1_46
*949 TAP_TAPCELL_ROW_1_47
*950 TAP_TAPCELL_ROW_1_48
*951 TAP_TAPCELL_ROW_1_49
*952 TAP_TAPCELL_ROW_1_50
*953 TAP_TAPCELL_ROW_1_51
*954 TAP_TAPCELL_ROW_1_52
*955 TAP_TAPCELL_ROW_2_53
*956 TAP_TAPCELL_ROW_2_54
*957 TAP_TAPCELL_ROW_2_55
*958 TAP_TAPCELL_ROW_2_56
*959 TAP_TAPCELL_ROW_2_57
*960 TAP_TAPCELL_ROW_2_58
*961 TAP_TAPCELL_ROW_2_59
*962 TAP_TAPCELL_ROW_3_60
*963 TAP_TAPCELL_ROW_3_61
*964 TAP_TAPCELL_ROW_3_62
*965 TAP_TAPCELL_ROW_3_63
*966 TAP_TAPCELL_ROW_3_64
*967 TAP_TAPCELL_ROW_3_65
*968 TAP_TAPCELL_ROW_3_66
*969 TAP_TAPCELL_ROW_4_67
*970 TAP_TAPCELL_ROW_4_68
*971 TAP_TAPCELL_ROW_4_69
*972 TAP_TAPCELL_ROW_4_70
*973 TAP_TAPCELL_ROW_4_71
*974 TAP_TAPCELL_ROW_4_72
*975 TAP_TAPCELL_ROW_4_73
*976 TAP_TAPCELL_ROW_5_74
*977 TAP_TAPCELL_ROW_5_75
*978 TAP_TAPCELL_ROW_5_76
*979 TAP_TAPCELL_ROW_5_77
*980 TAP_TAPCELL_ROW_5_78
*981 TAP_TAPCELL_ROW_5_79
*982 TAP_TAPCELL_ROW_5_80
*983 TAP_TAPCELL_ROW_6_81
*984 TAP_TAPCELL_ROW_6_82
*985 TAP_TAPCELL_ROW_6_83
*986 TAP_TAPCELL_ROW_6_84
*987 TAP_TAPCELL_ROW_6_85
*988 TAP_TAPCELL_ROW_6_86
*989 TAP_TAPCELL_ROW_6_87
*990 TAP_TAPCELL_ROW_7_88
*991 TAP_TAPCELL_ROW_7_89
*992 TAP_TAPCELL_ROW_7_90
*993 TAP_TAPCELL_ROW_7_91
*994 TAP_TAPCELL_ROW_7_92
*995 TAP_TAPCELL_ROW_7_93
*996 TAP_TAPCELL_ROW_7_94
*997 TAP_TAPCELL_ROW_8_100
*998 TAP_TAPCELL_ROW_8_101
*999 TAP_TAPCELL_ROW_8_95
*1000 TAP_TAPCELL_ROW_8_96
*1001 TAP_TAPCELL_ROW_8_97
*1002 TAP_TAPCELL_ROW_8_98
*1003 TAP_TAPCELL_ROW_8_99
*1004 TAP_TAPCELL_ROW_9_102
*1005 TAP_TAPCELL_ROW_9_103
*1006 TAP_TAPCELL_ROW_9_104
*1007 TAP_TAPCELL_ROW_9_105
*1008 TAP_TAPCELL_ROW_9_106
*1009 TAP_TAPCELL_ROW_9_107
*1010 TAP_TAPCELL_ROW_9_108
*1011 _000_
*1012 _001_
*1013 _002_
*1014 _003_
*1015 _004_
*1016 _005_
*1017 _006_
*1018 _007_
*1019 _008_
*1020 _009_
*1021 _010_
*1022 _011_
*1023 _012_
*1024 _013_
*1025 _014_
*1026 _015_
*1027 _016_
*1028 _017_
*1029 _018_
*1030 _019_
*1031 _020_
*1032 _021_
*1033 _022_
*1034 _023_
*1035 _024_
*1036 _025_
*1037 _026_
*1038 _027_
*1039 _028_
*1040 _029_
*1041 _030_
*1042 _031_
*1043 _032_
*1044 _033_
*1045 _034_
*1046 _035_
*1047 _036_
*1048 _037_
*1049 _038_
*1050 _039_
*1051 _040_
*1052 _041_
*1053 _042_
*1054 _043_
*1055 _044_
*1056 _045_
*1057 _046_
*1058 _047_
*1059 _048_
*1060 _049_
*1061 _050_
*1062 _051_
*1063 _052_
*1064 _053_
*1065 _054_
*1066 _055_
*1067 _056_
*1068 _057_
*1069 _058_
*1070 _059_
*1071 _060_
*1072 _061_
*1073 _062_
*1074 _063_
*1075 _064_
*1076 _065_
*1077 _066_
*1078 _067_
*1079 _068_
*1080 _069_
*1081 _070_
*1082 _071_
*1083 _072_
*1084 _073_
*1085 _074_
*1086 _075_
*1087 _076_
*1088 _077_
*1089 _078_
*1090 _079_
*1091 _080_
*1092 _081_
*1093 _082_
*1094 _083_
*1095 _084_
*1096 _085_
*1097 _086_
*1098 _087_
*1099 _088_
*1100 _089_
*1101 _090_
*1102 _091_
*1103 _092_
*1104 _093_
*1105 _094_
*1106 _095_
*1107 _096_
*1108 _097_
*1109 _098_
*1110 _099_
*1111 _100_
*1112 _101_
*1113 _102_
*1114 _103_
*1115 _104_
*1116 output1
*1117 output10
*1118 output100
*1119 output101
*1120 output102
*1121 output103
*1122 output104
*1123 output105
*1124 output11
*1125 output12
*1126 output13
*1127 output14
*1128 output15
*1129 output16
*1130 output17
*1131 output18
*1132 output19
*1133 output2
*1134 output20
*1135 output21
*1136 output22
*1137 output23
*1138 output24
*1139 output25
*1140 output26
*1141 output27
*1142 output28
*1143 output29
*1144 output3
*1145 output30
*1146 output31
*1147 output32
*1148 output33
*1149 output34
*1150 output35
*1151 output36
*1152 output37
*1153 output38
*1154 output39
*1155 output4
*1156 output40
*1157 output41
*1158 output42
*1159 output43
*1160 output44
*1161 output45
*1162 output46
*1163 output47
*1164 output48
*1165 output49
*1166 output5
*1167 output50
*1168 output51
*1169 output52
*1170 output53
*1171 output54
*1172 output55
*1173 output56
*1174 output57
*1175 output58
*1176 output59
*1177 output6
*1178 output60
*1179 output61
*1180 output62
*1181 output63
*1182 output64
*1183 output65
*1184 output66
*1185 output67
*1186 output68
*1187 output69
*1188 output7
*1189 output70
*1190 output71
*1191 output72
*1192 output73
*1193 output74
*1194 output75
*1195 output76
*1196 output77
*1197 output78
*1198 output79
*1199 output8
*1200 output80
*1201 output81
*1202 output82
*1203 output83
*1204 output84
*1205 output85
*1206 output86
*1207 output87
*1208 output88
*1209 output89
*1210 output9
*1211 output90
*1212 output91
*1213 output92
*1214 output93
*1215 output94
*1216 output95
*1217 output96
*1218 output97
*1219 output98
*1220 output99

*PORTS
Ci I
FrameData[0] I
FrameData[10] I
FrameData[11] I
FrameData[12] I
FrameData[13] I
FrameData[14] I
FrameData[15] I
FrameData[16] I
FrameData[17] I
FrameData[18] I
FrameData[19] I
FrameData[1] I
FrameData[20] I
FrameData[21] I
FrameData[22] I
FrameData[23] I
FrameData[24] I
FrameData[25] I
FrameData[26] I
FrameData[27] I
FrameData[28] I
FrameData[29] I
FrameData[2] I
FrameData[30] I
FrameData[31] I
FrameData[3] I
FrameData[4] I
FrameData[5] I
FrameData[6] I
FrameData[7] I
FrameData[8] I
FrameData[9] I
FrameData_O[0] O
FrameData_O[10] O
FrameData_O[11] O
FrameData_O[12] O
FrameData_O[13] O
FrameData_O[14] O
FrameData_O[15] O
FrameData_O[16] O
FrameData_O[17] O
FrameData_O[18] O
FrameData_O[19] O
FrameData_O[1] O
FrameData_O[20] O
FrameData_O[21] O
FrameData_O[22] O
FrameData_O[23] O
FrameData_O[24] O
FrameData_O[25] O
FrameData_O[26] O
FrameData_O[27] O
FrameData_O[28] O
FrameData_O[29] O
FrameData_O[2] O
FrameData_O[30] O
FrameData_O[31] O
FrameData_O[3] O
FrameData_O[4] O
FrameData_O[5] O
FrameData_O[6] O
FrameData_O[7] O
FrameData_O[8] O
FrameData_O[9] O
FrameStrobe[0] I
FrameStrobe[10] I
FrameStrobe[11] I
FrameStrobe[12] I
FrameStrobe[13] I
FrameStrobe[14] I
FrameStrobe[15] I
FrameStrobe[16] I
FrameStrobe[17] I
FrameStrobe[18] I
FrameStrobe[19] I
FrameStrobe[1] I
FrameStrobe[2] I
FrameStrobe[3] I
FrameStrobe[4] I
FrameStrobe[5] I
FrameStrobe[6] I
FrameStrobe[7] I
FrameStrobe[8] I
FrameStrobe[9] I
FrameStrobe_O[0] O
FrameStrobe_O[10] O
FrameStrobe_O[11] O
FrameStrobe_O[12] O
FrameStrobe_O[13] O
FrameStrobe_O[14] O
FrameStrobe_O[15] O
FrameStrobe_O[16] O
FrameStrobe_O[17] O
FrameStrobe_O[18] O
FrameStrobe_O[19] O
FrameStrobe_O[1] O
FrameStrobe_O[2] O
FrameStrobe_O[3] O
FrameStrobe_O[4] O
FrameStrobe_O[5] O
FrameStrobe_O[6] O
FrameStrobe_O[7] O
FrameStrobe_O[8] O
FrameStrobe_O[9] O
N1END[0] I
N1END[1] I
N1END[2] I
N1END[3] I
N2END[0] I
N2END[1] I
N2END[2] I
N2END[3] I
N2END[4] I
N2END[5] I
N2END[6] I
N2END[7] I
N2MID[0] I
N2MID[1] I
N2MID[2] I
N2MID[3] I
N2MID[4] I
N2MID[5] I
N2MID[6] I
N2MID[7] I
N4END[0] I
N4END[10] I
N4END[11] I
N4END[12] I
N4END[13] I
N4END[14] I
N4END[15] I
N4END[1] I
N4END[2] I
N4END[3] I
N4END[4] I
N4END[5] I
N4END[6] I
N4END[7] I
N4END[8] I
N4END[9] I
NN4END[0] I
NN4END[10] I
NN4END[11] I
NN4END[12] I
NN4END[13] I
NN4END[14] I
NN4END[15] I
NN4END[1] I
NN4END[2] I
NN4END[3] I
NN4END[4] I
NN4END[5] I
NN4END[6] I
NN4END[7] I
NN4END[8] I
NN4END[9] I
S1BEG[0] O
S1BEG[1] O
S1BEG[2] O
S1BEG[3] O
S2BEG[0] O
S2BEG[1] O
S2BEG[2] O
S2BEG[3] O
S2BEG[4] O
S2BEG[5] O
S2BEG[6] O
S2BEG[7] O
S2BEGb[0] O
S2BEGb[1] O
S2BEGb[2] O
S2BEGb[3] O
S2BEGb[4] O
S2BEGb[5] O
S2BEGb[6] O
S2BEGb[7] O
S4BEG[0] O
S4BEG[10] O
S4BEG[11] O
S4BEG[12] O
S4BEG[13] O
S4BEG[14] O
S4BEG[15] O
S4BEG[1] O
S4BEG[2] O
S4BEG[3] O
S4BEG[4] O
S4BEG[5] O
S4BEG[6] O
S4BEG[7] O
S4BEG[8] O
S4BEG[9] O
SS4BEG[0] O
SS4BEG[10] O
SS4BEG[11] O
SS4BEG[12] O
SS4BEG[13] O
SS4BEG[14] O
SS4BEG[15] O
SS4BEG[1] O
SS4BEG[2] O
SS4BEG[3] O
SS4BEG[4] O
SS4BEG[5] O
SS4BEG[6] O
SS4BEG[7] O
SS4BEG[8] O
SS4BEG[9] O
UserCLK I
UserCLKo O

*D_NET *2 0.0131605
*CONN
*P FrameData[0] I
*I *1011:I I *D gf180mcu_fd_sc_mcu7t5v0__buf_2
*CAP
1 FrameData[0] 0.00263254
2 *1011:I 0.00263254
3 *1011:I *1064:I 0.00179251
4 *1011:I *1076:I 0.000601413
5 *1011:I *1106:I 5.72413e-06
6 *1011:I *1110:I 0.000382483
7 *1011:I *1172:I 1.11891e-05
8 *1011:I *5:27 8.51677e-05
9 *1011:I *13:11 0.00149202
10 *1011:I *30:23 0.000259356
11 *1011:I *115:41 0.00108744
12 *1011:I *127:27 0.000363214
13 *1011:I *134:19 0
14 *1011:I *139:13 0.000660137
15 *1011:I *141:25 0.000209137
16 *1011:I *217:14 9.25217e-06
17 *1011:I *282:20 0.000936382
*RES
1 FrameData[0] *1011:I 48.514 
*END

*D_NET *3 0.0353055
*CONN
*P FrameData[10] I
*I *1021:I I *D gf180mcu_fd_sc_mcu7t5v0__buf_2
*CAP
1 FrameData[10] 0.00223611
2 *1021:I 0.00105709
3 *3:51 0.00253378
4 *3:27 0.0037128
5 *1021:I *1035:I 0.000766939
6 *1021:I *1072:I 5.61817e-05
7 *1021:I *1086:I 0.00190152
8 *1021:I *1087:I 0.000862953
9 *1021:I *1169:I 4.94046e-05
10 *1021:I *24:49 0.0016594
11 *1021:I *27:29 0.000459534
12 *1021:I *79:45 3.70941e-05
13 *1021:I *119:17 0.000689431
14 *1021:I *231:14 0.000567765
15 *3:27 *1020:I 0.000228186
16 *3:27 *1032:I 0.00112423
17 *3:27 *4:27 0.000805813
18 *3:27 *10:23 0.00179392
19 *3:27 *112:23 0.000802573
20 *3:27 *122:15 6.39171e-05
21 *3:27 *126:21 0
22 *3:27 *133:25 3.06457e-05
23 *3:27 *136:21 0.000102733
24 *3:27 *290:20 0.00446915
25 *3:27 *310:22 3.24611e-05
26 *3:27 *311:24 0
27 *3:27 *312:28 0
28 *3:27 *313:18 6.06231e-06
29 *3:51 *1086:I 3.5157e-05
30 *3:51 *1089:I 0.000734728
31 *3:51 *1096:I 0.00173975
32 *3:51 *1100:I 9.88736e-06
33 *3:51 *1112:I 0.00169661
34 *3:51 *107:19 0.00093678
35 *3:51 *117:21 0.000910322
36 *3:51 *127:27 0.000467459
37 *3:51 *129:23 0.000714682
38 *3:51 *134:19 4.1946e-05
39 *3:51 *137:39 0.000177731
40 *3:51 *138:25 0.000789386
41 *3:51 *148:23 0.000146292
42 *3:51 *216:24 0.000765063
43 *3:51 *220:14 8.9996e-05
*RES
1 FrameData[10] *3:27 45.322 
2 *3:27 *3:51 47.672 
3 *3:51 *1021:I 24.2 
*END

*D_NET *4 0.0547703
*CONN
*P FrameData[11] I
*I *1022:I I *D gf180mcu_fd_sc_mcu7t5v0__buf_2
*CAP
1 FrameData[11] 0.00233773
2 *1022:I 0.000868742
3 *4:79 0.00195527
4 *4:51 0.00250832
5 *4:27 0.00375951
6 *1022:I *1013:I 0.00113589
7 *1022:I *1118:I 2.02395e-05
8 *1022:I *1144:I 4.51878e-05
9 *1022:I *1153:I 3.09727e-05
10 *1022:I *68:29 0.000187304
11 *1022:I *243:28 2.40867e-05
12 *1022:I *309:86 1.54747e-06
13 *1022:I *313:36 9.19635e-05
14 *4:27 *1019:I 0.000199473
15 *4:27 *1072:I 2.95445e-05
16 *4:27 *1107:I 3.02838e-05
17 *4:27 *1112:I 0.000225717
18 *4:27 *5:27 0.000276506
19 *4:27 *10:23 0.00155653
20 *4:27 *14:21 0.000135941
21 *4:27 *18:11 0
22 *4:27 *22:23 2.6126e-05
23 *4:27 *29:43 0.00155816
24 *4:27 *106:17 0.00241143
25 *4:27 *109:21 0.00290849
26 *4:27 *112:49 0.000566405
27 *4:27 *118:27 2.07359e-05
28 *4:27 *126:21 0.000103868
29 *4:27 *135:25 0.00118458
30 *4:27 *218:24 0.00022975
31 *4:27 *219:14 2.96621e-05
32 *4:27 *311:24 0.00250971
33 *4:51 *1024:I 5.71094e-06
34 *4:51 *1035:I 0.00341972
35 *4:51 *1168:I 0
36 *4:51 *136:43 0.0010768
37 *4:51 *218:40 0.001755
38 *4:51 *219:14 0.000388765
39 *4:51 *239:42 0.000768898
40 *4:51 *246:16 0.00154021
41 *4:51 *264:16 0.00180153
42 *4:51 *309:48 0.000266743
43 *4:51 *311:46 0.000657647
44 *4:51 *312:28 0.000902806
45 *4:51 *312:56 8.81341e-06
46 *4:79 *1079:I 0.000451412
47 *4:79 *1082:I 0.0019189
48 *4:79 *1089:I 0.00175897
49 *4:79 *1092:I 0.00317549
50 *4:79 *1118:I 0.00118979
51 *4:79 *1125:I 0.00135638
52 *4:79 *1180:I 9.40355e-05
53 *4:79 *1194:I 4.92364e-05
54 *4:79 *1197:I 0.000142841
55 *4:79 *1198:I 3.54716e-05
56 *4:79 *110:47 0.00158851
57 *4:79 *220:14 0.00199019
58 *4:79 *243:28 0.00060778
59 *4:79 *309:86 2.27233e-05
60 *4:79 *314:30 2.03987e-05
61 *3:27 *4:27 0.000805813
*RES
1 FrameData[11] *4:27 48.194 
2 *4:27 *4:51 46.44 
3 *4:51 *4:79 49.952 
4 *4:79 *1022:I 15.004 
*END

*D_NET *5 0.04503
*CONN
*P FrameData[12] I
*I *1023:I I *D gf180mcu_fd_sc_mcu7t5v0__buf_2
*CAP
1 FrameData[12] 0.00181869
2 *1023:I 0.000778299
3 *5:43 0.001675
4 *5:27 0.0027154
5 *1023:I *1028:I 0.00219063
6 *1023:I *1054:I 6.11106e-05
7 *1023:I *78:25 6.48652e-05
8 *1023:I *135:43 0.00280482
9 *1023:I *140:17 0.00194633
10 *1023:I *221:18 0.00103127
11 *1023:I *229:14 0.00228434
12 *1023:I *275:16 0.00676255
13 *5:27 *1064:I 1.47007e-05
14 *5:27 *6:19 0.000142952
15 *5:27 *7:21 0.00298657
16 *5:27 *10:23 0.000352584
17 *5:27 *13:11 4.58601e-06
18 *5:27 *27:11 0
19 *5:27 *107:19 0.000249045
20 *5:27 *109:21 6.91851e-05
21 *5:27 *113:27 0.00012749
22 *5:27 *114:21 0.000102822
23 *5:27 *118:27 0.00175231
24 *5:27 *119:17 0.000707433
25 *5:27 *121:15 0.000446896
26 *5:27 *123:21 0.000194581
27 *5:27 *128:21 2.33916e-05
28 *5:27 *137:23 0.000386863
29 *5:27 *273:24 0.000621694
30 *5:27 *282:20 6.4769e-05
31 *5:27 *311:24 1.91917e-06
32 *5:43 *1077:I 0.000925417
33 *5:43 *1079:I 6.01944e-06
34 *5:43 *1101:I 0
35 *5:43 *1173:I 0.000406065
36 *5:43 *24:31 0.00198326
37 *5:43 *113:27 9.24558e-05
38 *5:43 *126:49 0.000134829