*SPEF "ieee 1481-1999"
*DESIGN "N_term_single"
*DATE "22:32:46 Friday December 05, 2025"
*VENDOR "The OpenROAD Project"
*PROGRAM "OpenROAD"
*VERSION "341650e72dad0dc8571822ff8c5d9c5e365327f7"
*DESIGN_FLOW "NAME_SCOPE LOCAL" "PIN_CAP NONE"
*DIVIDER /
*DELIMITER :
*BUS_DELIMITER []
*T_UNIT 1 NS
*C_UNIT 1 PF
*R_UNIT 1 OHM
*L_UNIT 1 HENRY

*NAME_MAP
*1 Ci
*2 FrameData[0]
*3 FrameData[10]
*4 FrameData[11]
*5 FrameData[12]
*6 FrameData[13]
*7 FrameData[14]
*8 FrameData[15]
*9 FrameData[16]
*10 FrameData[17]
*11 FrameData[18]
*12 FrameData[19]
*13 FrameData[1]
*14 FrameData[20]
*15 FrameData[21]
*16 FrameData[22]
*17 FrameData[23]
*18 FrameData[24]
*19 FrameData[25]
*20 FrameData[26]
*21 FrameData[27]
*22 FrameData[28]
*23 FrameData[29]
*24 FrameData[2]
*25 FrameData[30]
*26 FrameData[31]
*27 FrameData[3]
*28 FrameData[4]
*29 FrameData[5]
*30 FrameData[6]
*31 FrameData[7]
*32 FrameData[8]
*33 FrameData[9]
*34 FrameData_O[0]
*35 FrameData_O[10]
*36 FrameData_O[11]
*37 FrameData_O[12]
*38 FrameData_O[13]
*39 FrameData_O[14]
*40 FrameData_O[15]
*41 FrameData_O[16]
*42 FrameData_O[17]
*43 FrameData_O[18]
*44 FrameData_O[19]
*45 FrameData_O[1]
*46 FrameData_O[20]
*47 FrameData_O[21]
*48 FrameData_O[22]
*49 FrameData_O[23]
*50 FrameData_O[24]
*51 FrameData_O[25]
*52 FrameData_O[26]
*53 FrameData_O[27]
*54 FrameData_O[28]
*55 FrameData_O[29]
*56 FrameData_O[2]
*57 FrameData_O[30]
*58 FrameData_O[31]
*59 FrameData_O[3]
*60 FrameData_O[4]
*61 FrameData_O[5]
*62 FrameData_O[6]
*63 FrameData_O[7]
*64 FrameData_O[8]
*65 FrameData_O[9]
*66 FrameStrobe[0]
*67 FrameStrobe[10]
*68 FrameStrobe[11]
*69 FrameStrobe[12]
*70 FrameStrobe[13]
*71 FrameStrobe[14]
*72 FrameStrobe[15]
*73 FrameStrobe[16]
*74 FrameStrobe[17]
*75 FrameStrobe[18]
*76 FrameStrobe[19]
*77 FrameStrobe[1]
*78 FrameStrobe[2]
*79 FrameStrobe[3]
*80 FrameStrobe[4]
*81 FrameStrobe[5]
*82 FrameStrobe[6]
*83 FrameStrobe[7]
*84 FrameStrobe[8]
*85 FrameStrobe[9]
*86 FrameStrobe_O[0]
*87 FrameStrobe_O[10]
*88 FrameStrobe_O[11]
*89 FrameStrobe_O[12]
*90 FrameStrobe_O[13]
*91 FrameStrobe_O[14]
*92 FrameStrobe_O[15]
*93 FrameStrobe_O[16]
*94 FrameStrobe_O[17]
*95 FrameStrobe_O[18]
*96 FrameStrobe_O[19]
*97 FrameStrobe_O[1]
*98 FrameStrobe_O[2]
*99 FrameStrobe_O[3]
*100 FrameStrobe_O[4]
*101 FrameStrobe_O[5]
*102 FrameStrobe_O[6]
*103 FrameStrobe_O[7]
*104 FrameStrobe_O[8]
*105 FrameStrobe_O[9]
*106 N1END[0]
*107 N1END[1]
*108 N1END[2]
*109 N1END[3]
*110 N2END[0]
*111 N2END[1]
*112 N2END[2]
*113 N2END[3]
*114 N2END[4]
*115 N2END[5]
*116 N2END[6]
*117 N2END[7]
*118 N2MID[0]
*119 N2MID[1]
*120 N2MID[2]
*121 N2MID[3]
*122 N2MID[4]
*123 N2MID[5]
*124 N2MID[6]
*125 N2MID[7]
*126 N4END[0]
*127 N4END[10]
*128 N4END[11]
*129 N4END[12]
*130 N4END[13]
*131 N4END[14]
*132 N4END[15]
*133 N4END[1]
*134 N4END[2]
*135 N4END[3]
*136 N4END[4]
*137 N4END[5]
*138 N4END[6]
*139 N4END[7]
*140 N4END[8]
*141 N4END[9]
*142 NN4END[0]
*143 NN4END[10]
*144 NN4END[11]
*145 NN4END[12]
*146 NN4END[13]
*147 NN4END[14]
*148 NN4END[15]
*149 NN4END[1]
*150 NN4END[2]
*151 NN4END[3]
*152 NN4END[4]
*153 NN4END[5]
*154 NN4END[6]
*155 NN4END[7]
*156 NN4END[8]
*157 NN4END[9]
*158 S1BEG[0]
*159 S1BEG[1]
*160 S1BEG[2]
*161 S1BEG[3]
*162 S2BEG[0]
*163 S2BEG[1]
*164 S2BEG[2]
*165 S2BEG[3]
*166 S2BEG[4]
*167 S2BEG[5]
*168 S2BEG[6]
*169 S2BEG[7]
*170 S2BEGb[0]
*171 S2BEGb[1]
*172 S2BEGb[2]
*173 S2BEGb[3]
*174 S2BEGb[4]
*175 S2BEGb[5]
*176 S2BEGb[6]
*177 S2BEGb[7]
*178 S4BEG[0]
*179 S4BEG[10]
*180 S4BEG[11]
*181 S4BEG[12]
*182 S4BEG[13]
*183 S4BEG[14]
*184 S4BEG[15]
*185 S4BEG[1]
*186 S4BEG[2]
*187 S4BEG[3]
*188 S4BEG[4]
*189 S4BEG[5]
*190 S4BEG[6]
*191 S4BEG[7]
*192 S4BEG[8]
*193 S4BEG[9]
*194 SS4BEG[0]
*195 SS4BEG[10]
*196 SS4BEG[11]
*197 SS4BEG[12]
*198 SS4BEG[13]
*199 SS4BEG[14]
*200 SS4BEG[15]
*201 SS4BEG[1]
*202 SS4BEG[2]
*203 SS4BEG[3]
*204 SS4BEG[4]
*205 SS4BEG[5]
*206 SS4BEG[6]
*207 SS4BEG[7]
*208 SS4BEG[8]
*209 SS4BEG[9]
*210 UserCLK
*211 UserCLKo
*214 net1
*215 net10
*216 net100
*217 net101
*218 net102
*219 net103
*220 net104
*221 net105
*222 net11
*223 net12
*224 net13
*225 net14
*226 net15
*227 net16
*228 net17
*229 net18
*230 net19
*231 net2
*232 net20
*233 net21
*234 net22
*235 net23
*236 net24
*237 net25
*238 net26
*239 net27
*240 net28
*241 net29
*242 net3
*243 net30
*244 net31
*245 net32
*246 net33
*247 net34
*248 net35
*249 net36
*250 net37
*251 net38
*252 net39
*253 net4
*254 net40
*255 net41
*256 net42
*257 net43
*258 net44
*259 net45
*260 net46
*261 net47
*262 net48
*263 net49
*264 net5
*265 net50
*266 net51
*267 net52
*268 net53
*269 net54
*270 net55
*271 net56
*272 net57
*273 net58
*274 net59
*275 net6
*276 net60
*277 net61
*278 net62
*279 net63
*280 net64
*281 net65
*282 net66
*283 net67
*284 net68
*285 net69
*286 net7
*287 net70
*288 net71
*289 net72
*290 net73
*291 net74
*292 net75
*293 net76
*294 net77
*295 net78
*296 net79
*297 net8
*298 net80
*299 net81
*300 net82
*301 net83
*302 net84
*303 net85
*304 net86
*305 net87
*306 net88
*307 net89
*308 net9
*309 net90
*310 net91
*311 net92
*312 net93
*313 net94
*314 net95
*315 net96
*316 net97
*317 net98
*318 net99
*319 ANTENNA__000__I
*320 ANTENNA__001__I
*321 ANTENNA__002__I
*322 ANTENNA__003__I
*323 ANTENNA__004__I
*324 ANTENNA__005__I
*325 ANTENNA__006__I
*326 ANTENNA__007__I
*327 ANTENNA__008__I
*328 ANTENNA__009__I
*329 ANTENNA__010__I
*330 ANTENNA__011__I
*331 ANTENNA__012__I
*332 ANTENNA__013__I
*333 ANTENNA__014__I
*334 ANTENNA__015__I
*335 ANTENNA__016__I
*336 ANTENNA__017__I
*337 ANTENNA__018__I
*338 ANTENNA__019__I
*339 ANTENNA__020__I
*340 ANTENNA__021__I
*341 ANTENNA__022__I
*342 ANTENNA__023__I
*343 ANTENNA__024__I
*344 ANTENNA__025__I
*345 ANTENNA__026__I
*346 ANTENNA__027__I
*347 ANTENNA__028__I
*348 ANTENNA__029__I
*349 ANTENNA__030__I
*350 ANTENNA__031__I
*351 ANTENNA__032__I
*352 ANTENNA__033__I
*353 ANTENNA__034__I
*354 ANTENNA__035__I
*355 ANTENNA__036__I
*356 ANTENNA__037__I
*357 ANTENNA__038__I
*358 ANTENNA__039__I
*359 ANTENNA__040__I
*360 ANTENNA__041__I
*361 ANTENNA__042__I
*362 ANTENNA__043__I
*363 ANTENNA__044__I
*364 ANTENNA__045__I
*365 ANTENNA__046__I
*366 ANTENNA__047__I
*367 ANTENNA__048__I
*368 ANTENNA__049__I
*369 ANTENNA__050__I
*370 ANTENNA__051__I
*371 ANTENNA__052__I
*372 ANTENNA__053__I
*373 ANTENNA__054__I
*374 ANTENNA__055__I
*375 ANTENNA__056__I
*376 ANTENNA__057__I
*377 ANTENNA__058__I
*378 ANTENNA__059__I
*379 ANTENNA__060__I
*380 ANTENNA__061__I
*381 ANTENNA__062__I
*382 ANTENNA__063__I
*383 ANTENNA__064__I
*384 ANTENNA__065__I
*385 ANTENNA__066__I
*386 ANTENNA__067__I
*387 ANTENNA__068__I
*388 ANTENNA__069__I
*389 ANTENNA__070__I
*390 ANTENNA__071__I
*391 ANTENNA__072__I
*392 ANTENNA__073__I
*393 ANTENNA__074__I
*394 ANTENNA__075__I
*395 ANTENNA__076__I
*396 ANTENNA__077__I
*397 ANTENNA__078__I
*398 ANTENNA__079__I
*399 ANTENNA__080__I
*400 ANTENNA__081__I
*401 ANTENNA__082__I
*402 ANTENNA__083__I
*403 ANTENNA__084__I
*404 ANTENNA__085__I
*405 ANTENNA__086__I
*406 ANTENNA__087__I
*407 ANTENNA__088__I
*408 ANTENNA__089__I
*409 ANTENNA__090__I
*410 ANTENNA__091__I
*411 ANTENNA__092__I
*412 ANTENNA__093__I
*413 ANTENNA__094__I
*414 ANTENNA__095__I
*415 ANTENNA__096__I
*416 ANTENNA__097__I
*417 ANTENNA__098__I
*418 ANTENNA__099__I
*419 ANTENNA__100__I
*420 ANTENNA__101__I
*421 ANTENNA__102__I
*422 ANTENNA__103__I
*423 ANTENNA__104__I
*424 FILLER_0_104
*425 FILLER_0_138
*426 FILLER_0_172
*427 FILLER_0_180
*428 FILLER_0_184
*429 FILLER_0_188
*430 FILLER_0_2
*431 FILLER_0_206
*432 FILLER_0_240
*433 FILLER_0_242
*434 FILLER_0_271
*435 FILLER_0_302
*436 FILLER_0_338
*437 FILLER_0_36
*438 FILLER_0_370
*439 FILLER_0_404
*440 FILLER_0_438
*441 FILLER_0_444
*442 FILLER_0_478
*443 FILLER_0_482
*444 FILLER_0_484
*445 FILLER_0_70
*446 FILLER_10_10
*447 FILLER_10_101
*448 FILLER_10_107
*449 FILLER_10_171
*450 FILLER_10_177
*451 FILLER_10_2
*452 FILLER_10_203
*453 FILLER_10_22
*454 FILLER_10_229
*455 FILLER_10_237
*456 FILLER_10_241
*457 FILLER_10_255
*458 FILLER_10_287
*459 FILLER_10_30
*460 FILLER_10_303
*461 FILLER_10_311
*462 FILLER_10_317
*463 FILLER_10_34
*464 FILLER_10_349
*465 FILLER_10_357
*466 FILLER_10_368
*467 FILLER_10_37
*468 FILLER_10_376
*469 FILLER_10_380
*470 FILLER_10_382
*471 FILLER_10_395
*472 FILLER_10_427
*473 FILLER_10_443
*474 FILLER_10_451
*475 FILLER_10_457
*476 FILLER_10_465
*477 FILLER_10_469
*478 FILLER_11_136
*479 FILLER_11_142
*480 FILLER_11_158
*481 FILLER_11_162
*482 FILLER_11_174
*483 FILLER_11_2
*484 FILLER_11_206
*485 FILLER_11_212
*486 FILLER_11_276
*487 FILLER_11_282
*488 FILLER_11_294
*489 FILLER_11_298
*490 FILLER_11_310
*491 FILLER_11_342
*492 FILLER_11_352
*493 FILLER_11_416
*494 FILLER_11_422
*495 FILLER_11_454
*496 FILLER_11_492
*497 FILLER_11_496
*498 FILLER_11_498
*499 FILLER_11_66
*500 FILLER_11_72
*501 FILLER_12_101
*502 FILLER_12_107
*503 FILLER_12_171
*504 FILLER_12_177
*505 FILLER_12_2
*506 FILLER_12_241
*507 FILLER_12_247
*508 FILLER_12_259
*509 FILLER_12_263
*510 FILLER_12_265
*511 FILLER_12_276
*512 FILLER_12_292
*513 FILLER_12_296
*514 FILLER_12_298
*515 FILLER_12_309
*516 FILLER_12_313
*517 FILLER_12_317
*518 FILLER_12_325
*519 FILLER_12_329
*520 FILLER_12_34
*521 FILLER_12_340
*522 FILLER_12_37
*523 FILLER_12_372
*524 FILLER_12_380
*525 FILLER_12_384
*526 FILLER_12_387
*527 FILLER_12_451
*528 FILLER_13_104
*529 FILLER_13_130
*530 FILLER_13_138
*531 FILLER_13_142
*532 FILLER_13_150
*533 FILLER_13_154
*534 FILLER_13_165
*535 FILLER_13_197
*536 FILLER_13_199
*537 FILLER_13_2
*538 FILLER_13_202
*539 FILLER_13_206
*540 FILLER_13_220
*541 FILLER_13_252
*542 FILLER_13_268
*543 FILLER_13_276
*544 FILLER_13_282
*545 FILLER_13_298
*546 FILLER_13_302
*547 FILLER_13_314
*548 FILLER_13_346
*549 FILLER_13_352
*550 FILLER_13_384
*551 FILLER_13_400
*552 FILLER_13_408
*553 FILLER_13_424
*554 FILLER_13_440
*555 FILLER_13_492
*556 FILLER_13_496
*557 FILLER_13_498
*558 FILLER_13_66
*559 FILLER_13_72
*560 FILLER_14_104
*561 FILLER_14_107
*562 FILLER_14_115
*563 FILLER_14_119
*564 FILLER_14_145
*565 FILLER_14_161
*566 FILLER_14_169
*567 FILLER_14_173
*568 FILLER_14_187
*569 FILLER_14_191
*570 FILLER_14_2
*571 FILLER_14_210
*572 FILLER_14_218
*573 FILLER_14_239
*574 FILLER_14_255
*575 FILLER_14_259
*576 FILLER_14_270
*577 FILLER_14_278
*578 FILLER_14_290
*579 FILLER_14_298
*580 FILLER_14_313
*581 FILLER_14_317
*582 FILLER_14_321
*583 FILLER_14_323
*584 FILLER_14_334
*585 FILLER_14_34
*586 FILLER_14_342
*587 FILLER_14_346
*588 FILLER_14_348
*589 FILLER_14_359
*590 FILLER_14_37
*591 FILLER_14_375
*592 FILLER_14_383
*593 FILLER_14_387
*594 FILLER_14_399
*595 FILLER_14_407
*596 FILLER_14_419
*597 FILLER_14_427
*598 FILLER_14_431
*599 FILLER_14_443
*600 FILLER_14_451
*601 FILLER_14_69
*602 FILLER_14_85
*603 FILLER_14_96
*604 FILLER_15_10
*605 FILLER_15_101
*606 FILLER_15_104
*607 FILLER_15_106
*608 FILLER_15_121
*609 FILLER_15_129
*610 FILLER_15_133
*611 FILLER_15_135
*612 FILLER_15_138
*613 FILLER_15_154
*614 FILLER_15_169
*615 FILLER_15_17
*616 FILLER_15_172
*617 FILLER_15_176
*618 FILLER_15_178
*619 FILLER_15_193
*620 FILLER_15_2
*621 FILLER_15_201
*622 FILLER_15_203
*623 FILLER_15_220
*624 FILLER_15_240
*625 FILLER_15_248
*626 FILLER_15_250
*627 FILLER_15_265
*628 FILLER_15_269
*629 FILLER_15_271
*630 FILLER_15_274
*631 FILLER_15_289
*632 FILLER_15_305
*633 FILLER_15_308
*634 FILLER_15_316
*635 FILLER_15_320
*636 FILLER_15_322
*637 FILLER_15_33
*638 FILLER_15_337
*639 FILLER_15_339
*640 FILLER_15_342
*641 FILLER_15_346
*642 FILLER_15_361
*643 FILLER_15_369
*644 FILLER_15_373
*645 FILLER_15_390
*646 FILLER_15_410
*647 FILLER_15_418
*648 FILLER_15_433
*649 FILLER_15_441
*650 FILLER_15_458
*651 FILLER_15_478
*652 FILLER_15_482
*653 FILLER_15_484
*654 FILLER_15_50
*655 FILLER_15_70
*656 FILLER_15_78
*657 FILLER_15_82
*658 FILLER_15_97
*659 FILLER_1_118
*660 FILLER_1_134
*661 FILLER_1_138
*662 FILLER_1_142
*663 FILLER_1_158
*664 FILLER_1_172
*665 FILLER_1_176
*666 FILLER_1_18
*667 FILLER_1_187
*668 FILLER_1_2
*669 FILLER_1_212
*670 FILLER_1_214
*671 FILLER_1_267
*672 FILLER_1_269
*673 FILLER_1_346
*674 FILLER_1_418
*675 FILLER_1_460
*676 FILLER_1_492
*677 FILLER_1_496
*678 FILLER_1_498
*679 FILLER_1_50
*680 FILLER_1_6
*681 FILLER_1_66
*682 FILLER_1_72
*683 FILLER_1_86
*684 FILLER_2_101
*685 FILLER_2_107
*686 FILLER_2_111
*687 FILLER_2_113
*688 FILLER_2_124
*689 FILLER_2_140
*690 FILLER_2_144
*691 FILLER_2_155
*692 FILLER_2_171
*693 FILLER_2_177
*694 FILLER_2_2
*695 FILLER_2_209
*696 FILLER_2_212
*697 FILLER_2_216
*698 FILLER_2_34
*699 FILLER_2_37
*700 FILLER_2_373
*701 FILLER_2_443
*702 FILLER_3_136
*703 FILLER_3_142
*704 FILLER_3_174
*705 FILLER_3_190
*706 FILLER_3_198
*707 FILLER_3_2
*708 FILLER_3_220
*709 FILLER_3_224
*710 FILLER_3_247
*711 FILLER_3_257
*712 FILLER_3_273
*713 FILLER_3_277
*714 FILLER_3_279
*715 FILLER_3_296
*716 FILLER_3_298
*717 FILLER_3_345
*718 FILLER_3_349
*719 FILLER_3_416
*720 FILLER_3_422
*721 FILLER_3_442
*722 FILLER_3_492
*723 FILLER_3_496
*724 FILLER_3_498
*725 FILLER_3_66
*726 FILLER_3_72
*727 FILLER_4_10
*728 FILLER_4_109
*729 FILLER_4_14
*730 FILLER_4_141
*731 FILLER_4_149
*732 FILLER_4_153
*733 FILLER_4_164
*734 FILLER_4_172
*735 FILLER_4_174
*736 FILLER_4_177
*737 FILLER_4_193
*738 FILLER_4_2
*739 FILLER_4_201
*740 FILLER_4_203
*741 FILLER_4_214
*742 FILLER_4_230
*743 FILLER_4_234
*744 FILLER_4_236
*745 FILLER_4_239
*746 FILLER_4_243
*747 FILLER_4_247
*748 FILLER_4_255
*749 FILLER_4_259
*750 FILLER_4_26
*751 FILLER_4_275
*752 FILLER_4_279
*753 FILLER_4_291
*754 FILLER_4_299
*755 FILLER_4_303
*756 FILLER_4_325
*757 FILLER_4_34
*758 FILLER_4_351
*759 FILLER_4_359
*760 FILLER_4_37
*761 FILLER_4_371
*762 FILLER_4_379
*763 FILLER_4_383
*764 FILLER_4_387
*765 FILLER_4_391
*766 FILLER_4_402
*767 FILLER_4_408
*768 FILLER_4_423
*769 FILLER_4_431
*770 FILLER_4_434
*771 FILLER_4_450
*772 FILLER_4_452
*773 FILLER_4_457
*774 FILLER_4_69
*775 FILLER_4_77
*776 FILLER_4_81
*777 FILLER_4_93
*778 FILLER_5_127
*779 FILLER_5_135
*780 FILLER_5_139
*781 FILLER_5_142
*782 FILLER_5_150
*783 FILLER_5_154
*784 FILLER_5_156
*785 FILLER_5_177
*786 FILLER_5_2
*787 FILLER_5_209
*788 FILLER_5_214
*789 FILLER_5_246
*790 FILLER_5_248
*791 FILLER_5_267
*792 FILLER_5_275
*793 FILLER_5_277
*794 FILLER_5_290
*795 FILLER_5_298
*796 FILLER_5_310
*797 FILLER_5_326
*798 FILLER_5_334
*799 FILLER_5_345
*800 FILLER_5_349
*801 FILLER_5_352
*802 FILLER_5_368
*803 FILLER_5_370
*804 FILLER_5_381
*805 FILLER_5_397
*806 FILLER_5_405
*807 FILLER_5_409
*808 FILLER_5_422
*809 FILLER_5_454
*810 FILLER_5_458
*811 FILLER_5_492
*812 FILLER_5_496
*813 FILLER_5_498
*814 FILLER_5_66
*815 FILLER_5_72
*816 FILLER_5_80
*817 FILLER_5_84
*818 FILLER_5_95
*819 FILLER_6_101
*820 FILLER_6_107
*821 FILLER_6_115
*822 FILLER_6_119
*823 FILLER_6_130
*824 FILLER_6_138
*825 FILLER_6_149
*826 FILLER_6_165
*827 FILLER_6_173
*828 FILLER_6_177
*829 FILLER_6_193
*830 FILLER_6_2
*831 FILLER_6_201
*832 FILLER_6_203
*833 FILLER_6_222
*834 FILLER_6_238
*835 FILLER_6_242
*836 FILLER_6_244
*837 FILLER_6_247
*838 FILLER_6_279
*839 FILLER_6_295
*840 FILLER_6_303
*841 FILLER_6_317
*842 FILLER_6_321
*843 FILLER_6_323
*844 FILLER_6_334
*845 FILLER_6_34
*846 FILLER_6_342
*847 FILLER_6_346
*848 FILLER_6_358
*849 FILLER_6_37
*850 FILLER_6_374
*851 FILLER_6_382
*852 FILLER_6_384
*853 FILLER_6_387
*854 FILLER_6_403
*855 FILLER_6_417
*856 FILLER_6_425
*857 FILLER_6_429
*858 FILLER_6_431
*859 FILLER_6_442
*860 FILLER_6_450
*861 FILLER_6_454
*862 FILLER_6_457
*863 FILLER_6_465
*864 FILLER_6_470
*865 FILLER_7_104
*866 FILLER_7_120
*867 FILLER_7_128
*868 FILLER_7_142
*869 FILLER_7_2
*870 FILLER_7_206
*871 FILLER_7_212
*872 FILLER_7_220
*873 FILLER_7_224
*874 FILLER_7_226
*875 FILLER_7_237
*876 FILLER_7_269
*877 FILLER_7_277
*878 FILLER_7_279
*879 FILLER_7_282
*880 FILLER_7_346
*881 FILLER_7_352
*882 FILLER_7_368
*883 FILLER_7_376
*884 FILLER_7_387
*885 FILLER_7_401
*886 FILLER_7_417
*887 FILLER_7_419
*888 FILLER_7_422
*889 FILLER_7_454
*890 FILLER_7_470
*891 FILLER_7_474
*892 FILLER_7_492
*893 FILLER_7_496
*894 FILLER_7_498
*895 FILLER_7_66
*896 FILLER_7_72
*897 FILLER_8_100
*898 FILLER_8_104
*899 FILLER_8_107
*900 FILLER_8_171
*901 FILLER_8_187
*902 FILLER_8_2
*903 FILLER_8_219
*904 FILLER_8_221
*905 FILLER_8_232
*906 FILLER_8_240
*907 FILLER_8_244
*908 FILLER_8_247
*909 FILLER_8_279
*910 FILLER_8_295
*911 FILLER_8_303
*912 FILLER_8_314
*913 FILLER_8_317
*914 FILLER_8_34
*915 FILLER_8_37
*916 FILLER_8_381
*917 FILLER_8_387
*918 FILLER_8_451
*919 FILLER_8_457
*920 FILLER_8_465
*921 FILLER_8_469
*922 FILLER_8_51
*923 FILLER_8_67
*924 FILLER_8_71
*925 FILLER_8_73
*926 FILLER_8_84
*927 FILLER_9_136
*928 FILLER_9_142
*929 FILLER_9_150
*930 FILLER_9_161
*931 FILLER_9_177
*932 FILLER_9_185
*933 FILLER_9_189
*934 FILLER_9_2
*935 FILLER_9_201
*936 FILLER_9_209
*937 FILLER_9_212
*938 FILLER_9_244
*939 FILLER_9_262
*940 FILLER_9_264
*941 FILLER_9_275
*942 FILLER_9_279
*943 FILLER_9_282
*944 FILLER_9_346
*945 FILLER_9_352
*946 FILLER_9_368
*947 FILLER_9_376
*948 FILLER_9_390
*949 FILLER_9_406
*950 FILLER_9_414
*951 FILLER_9_418
*952 FILLER_9_422
*953 FILLER_9_454
*954 FILLER_9_470
*955 FILLER_9_474
*956 FILLER_9_492
*957 FILLER_9_496
*958 FILLER_9_498
*959 FILLER_9_66
*960 FILLER_9_72
*961 PHY_EDGE_ROW_0_Left_16
*962 PHY_EDGE_ROW_0_Right_0
*963 PHY_EDGE_ROW_10_Left_26
*964 PHY_EDGE_ROW_10_Right_10
*965 PHY_EDGE_ROW_11_Left_27
*966 PHY_EDGE_ROW_11_Right_11
*967 PHY_EDGE_ROW_12_Left_28
*968 PHY_EDGE_ROW_12_Right_12
*969 PHY_EDGE_ROW_13_Left_29
*970 PHY_EDGE_ROW_13_Right_13
*971 PHY_EDGE_ROW_14_Left_30
*972 PHY_EDGE_ROW_14_Right_14
*973 PHY_EDGE_ROW_15_Left_31
*974 PHY_EDGE_ROW_15_Right_15
*975 PHY_EDGE_ROW_1_Left_17
*976 PHY_EDGE_ROW_1_Right_1
*977 PHY_EDGE_ROW_2_Left_18
*978 PHY_EDGE_ROW_2_Right_2
*979 PHY_EDGE_ROW_3_Left_19
*980 PHY_EDGE_ROW_3_Right_3
*981 PHY_EDGE_ROW_4_Left_20
*982 PHY_EDGE_ROW_4_Right_4
*983 PHY_EDGE_ROW_5_Left_21
*984 PHY_EDGE_ROW_5_Right_5
*985 PHY_EDGE_ROW_6_Left_22
*986 PHY_EDGE_ROW_6_Right_6
*987 PHY_EDGE_ROW_7_Left_23
*988 PHY_EDGE_ROW_7_Right_7
*989 PHY_EDGE_ROW_8_Left_24
*990 PHY_EDGE_ROW_8_Right_8
*991 PHY_EDGE_ROW_9_Left_25
*992 PHY_EDGE_ROW_9_Right_9
*993 TAP_TAPCELL_ROW_0_32
*994 TAP_TAPCELL_ROW_0_33
*995 TAP_TAPCELL_ROW_0_34
*996 TAP_TAPCELL_ROW_0_35
*997 TAP_TAPCELL_ROW_0_36
*998 TAP_TAPCELL_ROW_0_37
*999 TAP_TAPCELL_ROW_0_38
*1000 TAP_TAPCELL_ROW_0_39
*1001 TAP_TAPCELL_ROW_0_40
*1002 TAP_TAPCELL_ROW_0_41
*1003 TAP_TAPCELL_ROW_0_42
*1004 TAP_TAPCELL_ROW_0_43
*1005 TAP_TAPCELL_ROW_0_44
*1006 TAP_TAPCELL_ROW_0_45
*1007 TAP_TAPCELL_ROW_10_109
*1008 TAP_TAPCELL_ROW_10_110
*1009 TAP_TAPCELL_ROW_10_111
*1010 TAP_TAPCELL_ROW_10_112
*1011 TAP_TAPCELL_ROW_10_113
*1012 TAP_TAPCELL_ROW_10_114
*1013 TAP_TAPCELL_ROW_10_115
*1014 TAP_TAPCELL_ROW_11_116
*1015 TAP_TAPCELL_ROW_11_117
*1016 TAP_TAPCELL_ROW_11_118
*1017 TAP_TAPCELL_ROW_11_119
*1018 TAP_TAPCELL_ROW_11_120
*1019 TAP_TAPCELL_ROW_11_121
*1020 TAP_TAPCELL_ROW_11_122
*1021 TAP_TAPCELL_ROW_12_123
*1022 TAP_TAPCELL_ROW_12_124
*1023 TAP_TAPCELL_ROW_12_125
*1024 TAP_TAPCELL_ROW_12_126
*1025 TAP_TAPCELL_ROW_12_127
*1026 TAP_TAPCELL_ROW_12_128
*1027 TAP_TAPCELL_ROW_12_129
*1028 TAP_TAPCELL_ROW_13_130
*1029 TAP_TAPCELL_ROW_13_131
*1030 TAP_TAPCELL_ROW_13_132
*1031 TAP_TAPCELL_ROW_13_133
*1032 TAP_TAPCELL_ROW_13_134
*1033 TAP_TAPCELL_ROW_13_135
*1034 TAP_TAPCELL_ROW_13_136
*1035 TAP_TAPCELL_ROW_14_137
*1036 TAP_TAPCELL_ROW_14_138
*1037 TAP_TAPCELL_ROW_14_139
*1038 TAP_TAPCELL_ROW_14_140
*1039 TAP_TAPCELL_ROW_14_141
*1040 TAP_TAPCELL_ROW_14_142
*1041 TAP_TAPCELL_ROW_14_143
*1042 TAP_TAPCELL_ROW_15_144
*1043 TAP_TAPCELL_ROW_15_145
*1044 TAP_TAPCELL_ROW_15_146
*1045 TAP_TAPCELL_ROW_15_147
*1046 TAP_TAPCELL_ROW_15_148
*1047 TAP_TAPCELL_ROW_15_149
*1048 TAP_TAPCELL_ROW_15_150
*1049 TAP_TAPCELL_ROW_15_151
*1050 TAP_TAPCELL_ROW_15_152
*1051 TAP_TAPCELL_ROW_15_153
*1052 TAP_TAPCELL_ROW_15_154
*1053 TAP_TAPCELL_ROW_15_155
*1054 TAP_TAPCELL_ROW_15_156
*1055 TAP_TAPCELL_ROW_15_157
*1056 TAP_TAPCELL_ROW_1_46
*1057 TAP_TAPCELL_ROW_1_47
*1058 TAP_TAPCELL_ROW_1_48
*1059 TAP_TAPCELL_ROW_1_49
*1060 TAP_TAPCELL_ROW_1_50
*1061 TAP_TAPCELL_ROW_1_51
*1062 TAP_TAPCELL_ROW_1_52
*1063 TAP_TAPCELL_ROW_2_53
*1064 TAP_TAPCELL_ROW_2_54
*1065 TAP_TAPCELL_ROW_2_55
*1066 TAP_TAPCELL_ROW_2_56
*1067 TAP_TAPCELL_ROW_2_57
*1068 TAP_TAPCELL_ROW_2_58
*1069 TAP_TAPCELL_ROW_2_59
*1070 TAP_TAPCELL_ROW_3_60
*1071 TAP_TAPCELL_ROW_3_61
*1072 TAP_TAPCELL_ROW_3_62
*1073 TAP_TAPCELL_ROW_3_63
*1074 TAP_TAPCELL_ROW_3_64
*1075 TAP_TAPCELL_ROW_3_65
*1076 TAP_TAPCELL_ROW_3_66
*1077 TAP_TAPCELL_ROW_4_67
*1078 TAP_TAPCELL_ROW_4_68
*1079 TAP_TAPCELL_ROW_4_69
*1080 TAP_TAPCELL_ROW_4_70
*1081 TAP_TAPCELL_ROW_4_71
*1082 TAP_TAPCELL_ROW_4_72
*1083 TAP_TAPCELL_ROW_4_73
*1084 TAP_TAPCELL_ROW_5_74
*1085 TAP_TAPCELL_ROW_5_75
*1086 TAP_TAPCELL_ROW_5_76
*1087 TAP_TAPCELL_ROW_5_77
*1088 TAP_TAPCELL_ROW_5_78
*1089 TAP_TAPCELL_ROW_5_79
*1090 TAP_TAPCELL_ROW_5_80
*1091 TAP_TAPCELL_ROW_6_81
*1092 TAP_TAPCELL_ROW_6_82
*1093 TAP_TAPCELL_ROW_6_83
*1094 TAP_TAPCELL_ROW_6_84
*1095 TAP_TAPCELL_ROW_6_85
*1096 TAP_TAPCELL_ROW_6_86
*1097 TAP_TAPCELL_ROW_6_87
*1098 TAP_TAPCELL_ROW_7_88
*1099 TAP_TAPCELL_ROW_7_89
*1100 TAP_TAPCELL_ROW_7_90
*1101 TAP_TAPCELL_ROW_7_91
*1102 TAP_TAPCELL_ROW_7_92
*1103 TAP_TAPCELL_ROW_7_93
*1104 TAP_TAPCELL_ROW_7_94
*1105 TAP_TAPCELL_ROW_8_100
*1106 TAP_TAPCELL_ROW_8_101
*1107 TAP_TAPCELL_ROW_8_95
*1108 TAP_TAPCELL_ROW_8_96
*1109 TAP_TAPCELL_ROW_8_97
*1110 TAP_TAPCELL_ROW_8_98
*1111 TAP_TAPCELL_ROW_8_99
*1112 TAP_TAPCELL_ROW_9_102
*1113 TAP_TAPCELL_ROW_9_103
*1114 TAP_TAPCELL_ROW_9_104
*1115 TAP_TAPCELL_ROW_9_105
*1116 TAP_TAPCELL_ROW_9_106
*1117 TAP_TAPCELL_ROW_9_107
*1118 TAP_TAPCELL_ROW_9_108
*1119 _000_
*1120 _001_
*1121 _002_
*1122 _003_
*1123 _004_
*1124 _005_
*1125 _006_
*1126 _007_
*1127 _008_
*1128 _009_
*1129 _010_
*1130 _011_
*1131 _012_
*1132 _013_
*1133 _014_
*1134 _015_
*1135 _016_
*1136 _017_
*1137 _018_
*1138 _019_
*1139 _020_
*1140 _021_
*1141 _022_
*1142 _023_
*1143 _024_
*1144 _025_
*1145 _026_
*1146 _027_
*1147 _028_
*1148 _029_
*1149 _030_
*1150 _031_
*1151 _032_
*1152 _033_
*1153 _034_
*1154 _035_
*1155 _036_
*1156 _037_
*1157 _038_
*1158 _039_
*1159 _040_
*1160 _041_
*1161 _042_
*1162 _043_
*1163 _044_
*1164 _045_
*1165 _046_
*1166 _047_
*1167 _048_
*1168 _049_
*1169 _050_
*1170 _051_
*1171 _052_
*1172 _053_
*1173 _054_
*1174 _055_
*1175 _056_
*1176 _057_
*1177 _058_
*1178 _059_
*1179 _060_
*1180 _061_
*1181 _062_
*1182 _063_
*1183 _064_
*1184 _065_
*1185 _066_
*1186 _067_
*1187 _068_
*1188 _069_
*1189 _070_
*1190 _071_
*1191 _072_
*1192 _073_
*1193 _074_
*1194 _075_
*1195 _076_
*1196 _077_
*1197 _078_
*1198 _079_
*1199 _080_
*1200 _081_
*1201 _082_
*1202 _083_
*1203 _084_
*1204 _085_
*1205 _086_
*1206 _087_
*1207 _088_
*1208 _089_
*1209 _090_
*1210 _091_
*1211 _092_
*1212 _093_
*1213 _094_
*1214 _095_
*1215 _096_
*1216 _097_
*1217 _098_
*1218 _099_
*1219 _100_
*1220 _101_
*1221 _102_
*1222 _103_
*1223 _104_
*1224 output1
*1225 output10
*1226 output100
*1227 output101
*1228 output102
*1229 output103
*1230 output104
*1231 output105
*1232 output11
*1233 output12
*1234 output13
*1235 output14
*1236 output15
*1237 output16
*1238 output17
*1239 output18
*1240 output19
*1241 output2
*1242 output20
*1243 output21
*1244 output22
*1245 output23
*1246 output24
*1247 output25
*1248 output26
*1249 output27
*1250 output28
*1251 output29
*1252 output3
*1253 output30
*1254 output31
*1255 output32
*1256 output33
*1257 output34
*1258 output35
*1259 output36
*1260 output37
*1261 output38
*1262 output39
*1263 output4
*1264 output40
*1265 output41
*1266 output42
*1267 output43
*1268 output44
*1269 output45
*1270 output46
*1271 output47
*1272 output48
*1273 output49
*1274 output5
*1275 output50
*1276 output51
*1277 output52
*1278 output53
*1279 output54
*1280 output55
*1281 output56
*1282 output57
*1283 output58
*1284 output59
*1285 output6
*1286 output60
*1287 output61
*1288 output62
*1289 output63
*1290 output64
*1291 output65
*1292 output66
*1293 output67
*1294 output68
*1295 output69
*1296 output7
*1297 output70
*1298 output71
*1299 output72
*1300 output73
*1301 output74
*1302 output75
*1303 output76
*1304 output77
*1305 output78
*1306 output79
*1307 output8
*1308 output80
*1309 output81
*1310 output82
*1311 output83
*1312 output84
*1313 output85
*1314 output86
*1315 output87
*1316 output88
*1317 output89
*1318 output9
*1319 output90
*1320 output91
*1321 output92
*1322 output93
*1323 output94
*1324 output95
*1325 output96
*1326 output97
*1327 output98
*1328 output99

*PORTS
Ci I
FrameData[0] I
FrameData[10] I
FrameData[11] I
FrameData[12] I
FrameData[13] I
FrameData[14] I
FrameData[15] I
FrameData[16] I
FrameData[17] I
FrameData[18] I
FrameData[19] I
FrameData[1] I
FrameData[20] I
FrameData[21] I
FrameData[22] I
FrameData[23] I
FrameData[24] I
FrameData[25] I
FrameData[26] I
FrameData[27] I
FrameData[28] I
FrameData[29] I
FrameData[2] I
FrameData[30] I
FrameData[31] I
FrameData[3] I
FrameData[4] I
FrameData[5] I
FrameData[6] I
FrameData[7] I
FrameData[8] I
FrameData[9] I
FrameData_O[0] O
FrameData_O[10] O
FrameData_O[11] O
FrameData_O[12] O
FrameData_O[13] O
FrameData_O[14] O
FrameData_O[15] O
FrameData_O[16] O
FrameData_O[17] O
FrameData_O[18] O
FrameData_O[19] O
FrameData_O[1] O
FrameData_O[20] O
FrameData_O[21] O
FrameData_O[22] O
FrameData_O[23] O
FrameData_O[24] O
FrameData_O[25] O
FrameData_O[26] O
FrameData_O[27] O
FrameData_O[28] O
FrameData_O[29] O
FrameData_O[2] O
FrameData_O[30] O
FrameData_O[31] O
FrameData_O[3] O
FrameData_O[4] O
FrameData_O[5] O
FrameData_O[6] O
FrameData_O[7] O
FrameData_O[8] O
FrameData_O[9] O
FrameStrobe[0] I
FrameStrobe[10] I
FrameStrobe[11] I
FrameStrobe[12] I
FrameStrobe[13] I
FrameStrobe[14] I
FrameStrobe[15] I
FrameStrobe[16] I
FrameStrobe[17] I
FrameStrobe[18] I
FrameStrobe[19] I
FrameStrobe[1] I
FrameStrobe[2] I
FrameStrobe[3] I
FrameStrobe[4] I
FrameStrobe[5] I
FrameStrobe[6] I
FrameStrobe[7] I
FrameStrobe[8] I
FrameStrobe[9] I
FrameStrobe_O[0] O
FrameStrobe_O[10] O
FrameStrobe_O[11] O
FrameStrobe_O[12] O
FrameStrobe_O[13] O
FrameStrobe_O[14] O
FrameStrobe_O[15] O
FrameStrobe_O[16] O
FrameStrobe_O[17] O
FrameStrobe_O[18] O
FrameStrobe_O[19] O
FrameStrobe_O[1] O
FrameStrobe_O[2] O
FrameStrobe_O[3] O
FrameStrobe_O[4] O
FrameStrobe_O[5] O
FrameStrobe_O[6] O
FrameStrobe_O[7] O
FrameStrobe_O[8] O
FrameStrobe_O[9] O
N1END[0] I
N1END[1] I
N1END[2] I
N1END[3] I
N2END[0] I
N2END[1] I
N2END[2] I
N2END[3] I
N2END[4] I
N2END[5] I
N2END[6] I
N2END[7] I
N2MID[0] I
N2MID[1] I
N2MID[2] I
N2MID[3] I
N2MID[4] I
N2MID[5] I
N2MID[6] I
N2MID[7] I
N4END[0] I
N4END[10] I
N4END[11] I
N4END[12] I
N4END[13] I
N4END[14] I
N4END[15] I
N4END[1] I
N4END[2] I
N4END[3] I
N4END[4] I
N4END[5] I
N4END[6] I
N4END[7] I
N4END[8] I
N4END[9] I
NN4END[0] I
NN4END[10] I
NN4END[11] I
NN4END[12] I
NN4END[13] I
NN4END[14] I
NN4END[15] I
NN4END[1] I
NN4END[2] I
NN4END[3] I
NN4END[4] I
NN4END[5] I
NN4END[6] I
NN4END[7] I
NN4END[8] I
NN4END[9] I
S1BEG[0] O
S1BEG[1] O
S1BEG[2] O
S1BEG[3] O
S2BEG[0] O
S2BEG[1] O
S2BEG[2] O
S2BEG[3] O
S2BEG[4] O
S2BEG[5] O
S2BEG[6] O
S2BEG[7] O
S2BEGb[0] O
S2BEGb[1] O
S2BEGb[2] O
S2BEGb[3] O
S2BEGb[4] O
S2BEGb[5] O
S2BEGb[6] O
S2BEGb[7] O
S4BEG[0] O
S4BEG[10] O
S4BEG[11] O
S4BEG[12] O
S4BEG[13] O
S4BEG[14] O
S4BEG[15] O
S4BEG[1] O
S4BEG[2] O
S4BEG[3] O
S4BEG[4] O
S4BEG[5] O
S4BEG[6] O
S4BEG[7] O
S4BEG[8] O
S4BEG[9] O
SS4BEG[0] O
SS4BEG[10] O
SS4BEG[11] O
SS4BEG[12] O
SS4BEG[13] O
SS4BEG[14] O
SS4BEG[15] O
SS4BEG[1] O
SS4BEG[2] O
SS4BEG[3] O
SS4BEG[4] O
SS4BEG[5] O
SS4BEG[6] O
SS4BEG[7] O
SS4BEG[8] O
SS4BEG[9] O
UserCLK I
UserCLKo O

*D_NET *2 0.015083
*CONN
*P FrameData[0] I
*I *1119:I I *D gf180mcu_fd_sc_mcu7t5v0__buf_2
*I *319:I I *D gf180mcu_fd_sc_mcu7t5v0__antenna
*CAP
1 FrameData[0] 0.00190713
2 *1119:I 4.74055e-05
3 *319:I 2.95292e-05
4 *2:23 0.00198407
5 *319:I *111:31 1.3758e-05
6 *1119:I *1283:I 0.00020862
7 *1119:I *111:31 1.49066e-06
8 *1119:I *135:29 0.00013063
9 *1119:I *154:13 8.61081e-05
10 *2:23 *1283:I 0.00111228
11 *2:23 *13:19 0.000916921
12 *2:23 *21:23 9.15501e-05
13 *2:23 *21:37 0.000800308
14 *2:23 *27:17 0.000557979
15 *2:23 *106:19 0.000216797
16 *2:23 *107:27 0.000209106
17 *2:23 *111:31 0.000901298
18 *2:23 *113:17 0.0001537
19 *2:23 *122:19 0.000156099
20 *2:23 *123:23 0.000400593
21 *2:23 *127:27 6.48311e-06
22 *2:23 *133:29 0.000161793
23 *2:23 *139:33 0.000236305
24 *2:23 *141:19 0.00164175
25 *2:23 *151:13 0.00302522
26 *2:23 *154:13 8.61081e-05
*RES
1 FrameData[0] *2:23 46.234 
2 *2:23 *319:I 9.228 
3 *2:23 *1119:I 9.912 
*END

*D_NET *3 0.0318329
*CONN
*P FrameData[10] I
*I *1129:I I *D gf180mcu_fd_sc_mcu7t5v0__buf_2
*I *329:I I *D gf180mcu_fd_sc_mcu7t5v0__antenna
*CAP
1 FrameData[10] 0.00159093
2 *1129:I 4.98668e-05
3 *329:I 0
4 *3:29 0.00142242
5 *3:19 0.00296349
6 *1129:I *1277:I 1.5015e-05
7 *3:19 *4:21 0.0012019
8 *3:19 *6:23 0.00233871
9 *3:19 *11:21 0.000308378
10 *3:19 *16:23 0.000989942
11 *3:19 *24:19 0.00269471
12 *3:19 *24:41 7.09482e-05
13 *3:19 *33:17 0.000352788
14 *3:19 *110:19 0.00150424
15 *3:19 *119:25 0.0013558
16 *3:19 *120:13 4.02664e-05
17 *3:19 *126:23 4.51104e-05
18 *3:19 *239:22 0.000868612
19 *3:19 *310:12 3.79613e-05
20 *3:19 *311:22 7.16933e-05
21 *3:29 *1140:I 0.000127047
22 *3:29 *1141:I 1.65795e-06
23 *3:29 *1159:I 1.49066e-06
24 *3:29 *1249:I 0.000142801
25 *3:29 *15:17 0.00212757
26 *3:29 *16:41 0.00482132
27 *3:29 *24:41 0.00011397
28 *3:29 *79:41 2.57888e-05
29 *3:29 *110:39 0.000290605
30 *3:29 *110:55 0.000334748
31 *3:29 *114:23 3.71997e-05
32 *3:29 *114:31 8.65627e-06
33 *3:29 *120:13 0.00127229
34 *3:29 *126:45 0.00152217
35 *3:29 *155:11 0.000814127
36 *3:29 *221:32 0.00181708
37 *3:29 *226:16 2.6126e-05
38 *3:29 *231:18 0
39 *3:29 *239:46 0.00042549
*RES
1 FrameData[10] *3:19 35.714 
2 *3:19 *3:29 30.036 
3 *3:29 *329:I 4.5 
4 *3:29 *1129:I 4.88 
*END

*D_NET *4 0.0442489
*CONN
*P FrameData[11] I
*I *1130:I I *D gf180mcu_fd_sc_mcu7t5v0__buf_2
*I *330:I I *D gf180mcu_fd_sc_mcu7t5v0__antenna
*CAP
1 FrameData[11] 0.00192968
2 *1130:I 5.59627e-05
3 *330:I 0
4 *4:47 0.00149209
5 *4:21 0.0033658
6 *1130:I *1249:I 7.09389e-05
7 *1130:I *231:18 0.000190571
8 *1130:I *264:16 0
9 *4:21 *1218:I 0.000158809
10 *4:21 *1283:I 0.00205528
11 *4:21 *5:27 2.01332e-05