*SPEF "ieee 1481-1999"
*DESIGN "S_term_single"
*DATE "10:48:26 Friday November 28, 2025"
*VENDOR "The OpenROAD Project"
*PROGRAM "OpenROAD"
*VERSION "341650e72dad0dc8571822ff8c5d9c5e365327f7"
*DESIGN_FLOW "NAME_SCOPE LOCAL" "PIN_CAP NONE"
*DIVIDER /
*DELIMITER :
*BUS_DELIMITER []
*T_UNIT 1 NS
*C_UNIT 1 PF
*R_UNIT 1 OHM
*L_UNIT 1 HENRY

*NAME_MAP
*1 net106
*2 FrameData[0]
*3 FrameData[10]
*4 FrameData[11]
*5 FrameData[12]
*6 FrameData[13]
*7 FrameData[14]
*8 FrameData[15]
*9 FrameData[16]
*10 FrameData[17]
*11 FrameData[18]
*12 FrameData[19]
*13 FrameData[1]
*14 FrameData[20]
*15 FrameData[21]
*16 FrameData[22]
*17 FrameData[23]
*18 FrameData[24]
*19 FrameData[25]
*20 FrameData[26]
*21 FrameData[27]
*22 FrameData[28]
*23 FrameData[29]
*24 FrameData[2]
*25 FrameData[30]
*26 FrameData[31]
*27 FrameData[3]
*28 FrameData[4]
*29 FrameData[5]
*30 FrameData[6]
*31 FrameData[7]
*32 FrameData[8]
*33 FrameData[9]
*34 FrameData_O[0]
*35 FrameData_O[10]
*36 FrameData_O[11]
*37 FrameData_O[12]
*38 FrameData_O[13]
*39 FrameData_O[14]
*40 FrameData_O[15]
*41 FrameData_O[16]
*42 FrameData_O[17]
*43 FrameData_O[18]
*44 FrameData_O[19]
*45 FrameData_O[1]
*46 FrameData_O[20]
*47 FrameData_O[21]
*48 FrameData_O[22]
*49 FrameData_O[23]
*50 FrameData_O[24]
*51 FrameData_O[25]
*52 FrameData_O[26]
*53 FrameData_O[27]
*54 FrameData_O[28]
*55 FrameData_O[29]
*56 FrameData_O[2]
*57 FrameData_O[30]
*58 FrameData_O[31]
*59 FrameData_O[3]
*60 FrameData_O[4]
*61 FrameData_O[5]
*62 FrameData_O[6]
*63 FrameData_O[7]
*64 FrameData_O[8]
*65 FrameData_O[9]
*66 FrameStrobe[0]
*67 FrameStrobe[10]
*68 FrameStrobe[11]
*69 FrameStrobe[12]
*70 FrameStrobe[13]
*71 FrameStrobe[14]
*72 FrameStrobe[15]
*73 FrameStrobe[16]
*74 FrameStrobe[17]
*75 FrameStrobe[18]
*76 FrameStrobe[19]
*77 FrameStrobe[1]
*78 FrameStrobe[2]
*79 FrameStrobe[3]
*80 FrameStrobe[4]
*81 FrameStrobe[5]
*82 FrameStrobe[6]
*83 FrameStrobe[7]
*84 FrameStrobe[8]
*85 FrameStrobe[9]
*86 FrameStrobe_O[0]
*87 FrameStrobe_O[10]
*88 FrameStrobe_O[11]
*89 FrameStrobe_O[12]
*90 FrameStrobe_O[13]
*91 FrameStrobe_O[14]
*92 FrameStrobe_O[15]
*93 FrameStrobe_O[16]
*94 FrameStrobe_O[17]
*95 FrameStrobe_O[18]
*96 FrameStrobe_O[19]
*97 FrameStrobe_O[1]
*98 FrameStrobe_O[2]
*99 FrameStrobe_O[3]
*100 FrameStrobe_O[4]
*101 FrameStrobe_O[5]
*102 FrameStrobe_O[6]
*103 FrameStrobe_O[7]
*104 FrameStrobe_O[8]
*105 FrameStrobe_O[9]
*106 N1BEG[0]
*107 N1BEG[1]
*108 N1BEG[2]
*109 N1BEG[3]
*110 N2BEG[0]
*111 N2BEG[1]
*112 N2BEG[2]
*113 N2BEG[3]
*114 N2BEG[4]
*115 N2BEG[5]
*116 N2BEG[6]
*117 N2BEG[7]
*118 N2BEGb[0]
*119 N2BEGb[1]
*120 N2BEGb[2]
*121 N2BEGb[3]
*122 N2BEGb[4]
*123 N2BEGb[5]
*124 N2BEGb[6]
*125 N2BEGb[7]
*126 N4BEG[0]
*127 N4BEG[10]
*128 N4BEG[11]
*129 N4BEG[12]
*130 N4BEG[13]
*131 N4BEG[14]
*132 N4BEG[15]
*133 N4BEG[1]
*134 N4BEG[2]
*135 N4BEG[3]
*136 N4BEG[4]
*137 N4BEG[5]
*138 N4BEG[6]
*139 N4BEG[7]
*140 N4BEG[8]
*141 N4BEG[9]
*142 NN4BEG[0]
*143 NN4BEG[10]
*144 NN4BEG[11]
*145 NN4BEG[12]
*146 NN4BEG[13]
*147 NN4BEG[14]
*148 NN4BEG[15]
*149 NN4BEG[1]
*150 NN4BEG[2]
*151 NN4BEG[3]
*152 NN4BEG[4]
*153 NN4BEG[5]
*154 NN4BEG[6]
*155 NN4BEG[7]
*156 NN4BEG[8]
*157 NN4BEG[9]
*158 S1END[0]
*159 S1END[1]
*160 S1END[2]
*161 S1END[3]
*162 S2END[0]
*163 S2END[1]
*164 S2END[2]
*165 S2END[3]
*166 S2END[4]
*167 S2END[5]
*168 S2END[6]
*169 S2END[7]
*170 S2MID[0]
*171 S2MID[1]
*172 S2MID[2]
*173 S2MID[3]
*174 S2MID[4]
*175 S2MID[5]
*176 S2MID[6]
*177 S2MID[7]
*178 S4END[0]
*179 S4END[10]
*180 S4END[11]
*181 S4END[12]
*182 S4END[13]
*183 S4END[14]
*184 S4END[15]
*185 S4END[1]
*186 S4END[2]
*187 S4END[3]
*188 S4END[4]
*189 S4END[5]
*190 S4END[6]
*191 S4END[7]
*192 S4END[8]
*193 S4END[9]
*194 SS4END[0]
*195 SS4END[10]
*196 SS4END[11]
*197 SS4END[12]
*198 SS4END[13]
*199 SS4END[14]
*200 SS4END[15]
*201 SS4END[1]
*202 SS4END[2]
*203 SS4END[3]
*204 SS4END[4]
*205 SS4END[5]
*206 SS4END[6]
*207 SS4END[7]
*208 SS4END[8]
*209 SS4END[9]
*210 UserCLK
*211 UserCLKo
*214 net1
*215 net10
*216 net100
*217 net101
*218 net102
*219 net103
*220 net104
*221 net105
*222 net11
*223 net12
*224 net13
*225 net14
*226 net15
*227 net16
*228 net17
*229 net18
*230 net19
*231 net2
*232 net20
*233 net21
*234 net22
*235 net23
*236 net24
*237 net25
*238 net26
*239 net27
*240 net28
*241 net29
*242 net3
*243 net30
*244 net31
*245 net32
*246 net33
*247 net34
*248 net35
*249 net36
*250 net37
*251 net38
*252 net39
*253 net4
*254 net40
*255 net41
*256 net42
*257 net43
*258 net44
*259 net45
*260 net46
*261 net47
*262 net48
*263 net49
*264 net5
*265 net50
*266 net51
*267 net52
*268 net53
*269 net54
*270 net55
*271 net56
*272 net57
*273 net58
*274 net59
*275 net6
*276 net60
*277 net61
*278 net62
*279 net63
*280 net64
*281 net65
*282 net66
*283 net67
*284 net68
*285 net69
*286 net7
*287 net70
*288 net71
*289 net72
*290 net73
*291 net74
*292 net75
*293 net76
*294 net77
*295 net78
*296 net79
*297 net8
*298 net80
*299 net81
*300 net82
*301 net83
*302 net84
*303 net85
*304 net86
*305 net87
*306 net88
*307 net89
*308 net9
*309 net90
*310 net91
*311 net92
*312 net93
*313 net94
*314 net95
*315 net96
*316 net97
*317 net98
*318 net99
*319 FILLER_0_104
*320 FILLER_0_138
*321 FILLER_0_172
*322 FILLER_0_2
*323 FILLER_0_206
*324 FILLER_0_240
*325 FILLER_0_274
*326 FILLER_0_308
*327 FILLER_0_342
*328 FILLER_0_36
*329 FILLER_0_376
*330 FILLER_0_410
*331 FILLER_0_444
*332 FILLER_0_478
*333 FILLER_0_482
*334 FILLER_0_484
*335 FILLER_0_70
*336 FILLER_10_101
*337 FILLER_10_107
*338 FILLER_10_171
*339 FILLER_10_177
*340 FILLER_10_2
*341 FILLER_10_201
*342 FILLER_10_233
*343 FILLER_10_241
*344 FILLER_10_247
*345 FILLER_10_27
*346 FILLER_10_311
*347 FILLER_10_317
*348 FILLER_10_37
*349 FILLER_10_381
*350 FILLER_10_387
*351 FILLER_10_4
*352 FILLER_10_403
*353 FILLER_10_411
*354 FILLER_10_421
*355 FILLER_10_429
*356 FILLER_10_45
*357 FILLER_10_54
*358 FILLER_10_70
*359 FILLER_10_78
*360 FILLER_10_82
*361 FILLER_10_84
*362 FILLER_10_93
*363 FILLER_11_125
*364 FILLER_11_133
*365 FILLER_11_137
*366 FILLER_11_139
*367 FILLER_11_142
*368 FILLER_11_151
*369 FILLER_11_167
*370 FILLER_11_171
*371 FILLER_11_173
*372 FILLER_11_182
*373 FILLER_11_198
*374 FILLER_11_2
*375 FILLER_11_212
*376 FILLER_11_220
*377 FILLER_11_229
*378 FILLER_11_23
*379 FILLER_11_261
*380 FILLER_11_27
*381 FILLER_11_277
*382 FILLER_11_279
*383 FILLER_11_282
*384 FILLER_11_314
*385 FILLER_11_323
*386 FILLER_11_339
*387 FILLER_11_347
*388 FILLER_11_349
*389 FILLER_11_352
*390 FILLER_11_360
*391 FILLER_11_362
*392 FILLER_11_371
*393 FILLER_11_381
*394 FILLER_11_389
*395 FILLER_11_399
*396 FILLER_11_415
*397 FILLER_11_419
*398 FILLER_11_422
*399 FILLER_11_43
*400 FILLER_11_492
*401 FILLER_11_496
*402 FILLER_11_498
*403 FILLER_11_52
*404 FILLER_11_68
*405 FILLER_11_72
*406 FILLER_11_76
*407 FILLER_11_93
*408 FILLER_12_103
*409 FILLER_12_135
*410 FILLER_12_151
*411 FILLER_12_177
*412 FILLER_12_195
*413 FILLER_12_2
*414 FILLER_12_227
*415 FILLER_12_243
*416 FILLER_12_247
*417 FILLER_12_311
*418 FILLER_12_317
*419 FILLER_12_321
*420 FILLER_12_331
*421 FILLER_12_347
*422 FILLER_12_355
*423 FILLER_12_359
*424 FILLER_12_361
*425 FILLER_12_37
*426 FILLER_12_378
*427 FILLER_12_382
*428 FILLER_12_384
*429 FILLER_12_387
*430 FILLER_12_403
*431 FILLER_12_41
*432 FILLER_12_411
*433 FILLER_12_415
*434 FILLER_12_417
*435 FILLER_12_426
*436 FILLER_12_6
*437 FILLER_12_99
*438 FILLER_13_142
*439 FILLER_13_199
*440 FILLER_13_2
*441 FILLER_13_207
*442 FILLER_13_209
*443 FILLER_13_220
*444 FILLER_13_252
*445 FILLER_13_268
*446 FILLER_13_277
*447 FILLER_13_279
*448 FILLER_13_282
*449 FILLER_13_298
*450 FILLER_13_308
*451 FILLER_13_340
*452 FILLER_13_348
*453 FILLER_13_352
*454 FILLER_13_384
*455 FILLER_13_400
*456 FILLER_13_408
*457 FILLER_13_412
*458 FILLER_13_422
*459 FILLER_13_487
*460 FILLER_13_489
*461 FILLER_13_492
*462 FILLER_13_496
*463 FILLER_13_498
*464 FILLER_13_72
*465 FILLER_13_80
*466 FILLER_14_115
*467 FILLER_14_185
*468 FILLER_14_2
*469 FILLER_14_215
*470 FILLER_14_231
*471 FILLER_14_235
*472 FILLER_14_255
*473 FILLER_14_287
*474 FILLER_14_303
*475 FILLER_14_311
*476 FILLER_14_325
*477 FILLER_14_337
*478 FILLER_14_369
*479 FILLER_14_37
*480 FILLER_14_387
*481 FILLER_14_391
*482 FILLER_14_400
*483 FILLER_14_404
*484 FILLER_14_406
*485 FILLER_14_451
*486 FILLER_14_6
*487 FILLER_15_104
*488 FILLER_15_138
*489 FILLER_15_172
*490 FILLER_15_2
*491 FILLER_15_224
*492 FILLER_15_232
*493 FILLER_15_236
*494 FILLER_15_240
*495 FILLER_15_274
*496 FILLER_15_308
*497 FILLER_15_342
*498 FILLER_15_36
*499 FILLER_15_376
*500 FILLER_15_392
*501 FILLER_15_410
*502 FILLER_15_439
*503 FILLER_15_441
*504 FILLER_15_472
*505 FILLER_15_492
*506 FILLER_15_496
*507 FILLER_15_498
*508 FILLER_15_70
*509 FILLER_1_104
*510 FILLER_1_112
*511 FILLER_1_114
*512 FILLER_1_123
*513 FILLER_1_139
*514 FILLER_1_142
*515 FILLER_1_146
*516 FILLER_1_155
*517 FILLER_1_171
*518 FILLER_1_175
*519 FILLER_1_177
*520 FILLER_1_186
*521 FILLER_1_2
*522 FILLER_1_202
*523 FILLER_1_220
*524 FILLER_1_236
*525 FILLER_1_244
*526 FILLER_1_248
*527 FILLER_1_250
*528 FILLER_1_259
*529 FILLER_1_26
*530 FILLER_1_263
*531 FILLER_1_272
*532 FILLER_1_282
*533 FILLER_1_346
*534 FILLER_1_352
*535 FILLER_1_416
*536 FILLER_1_42
*537 FILLER_1_422
*538 FILLER_1_492
*539 FILLER_1_496
*540 FILLER_1_498
*541 FILLER_1_58
*542 FILLER_1_66
*543 FILLER_1_72
*544 FILLER_2_101
*545 FILLER_2_107
*546 FILLER_2_171
*547 FILLER_2_177
*548 FILLER_2_18
*549 FILLER_2_193
*550 FILLER_2_2
*551 FILLER_2_209
*552 FILLER_2_213
*553 FILLER_2_223
*554 FILLER_2_239
*555 FILLER_2_243
*556 FILLER_2_255
*557 FILLER_2_26
*558 FILLER_2_271
*559 FILLER_2_279
*560 FILLER_2_289
*561 FILLER_2_305
*562 FILLER_2_313
*563 FILLER_2_317
*564 FILLER_2_325
*565 FILLER_2_329
*566 FILLER_2_339
*567 FILLER_2_37
*568 FILLER_2_371
*569 FILLER_2_379
*570 FILLER_2_383
*571 FILLER_2_387
*572 FILLER_2_451
*573 FILLER_3_126
*574 FILLER_3_135
*575 FILLER_3_139
*576 FILLER_3_142
*577 FILLER_3_158
*578 FILLER_3_167
*579 FILLER_3_199
*580 FILLER_3_2
*581 FILLER_3_207
*582 FILLER_3_209
*583 FILLER_3_212
*584 FILLER_3_276
*585 FILLER_3_290
*586 FILLER_3_298
*587 FILLER_3_302
*588 FILLER_3_311
*589 FILLER_3_327
*590 FILLER_3_343
*591 FILLER_3_347
*592 FILLER_3_349
*593 FILLER_3_352
*594 FILLER_3_384
*595 FILLER_3_393
*596 FILLER_3_409
*597 FILLER_3_417
*598 FILLER_3_419
*599 FILLER_3_422
*600 FILLER_3_438
*601 FILLER_3_447
*602 FILLER_3_451
*603 FILLER_3_453
*604 FILLER_3_492
*605 FILLER_3_496
*606 FILLER_3_498
*607 FILLER_3_66
*608 FILLER_3_80
*609 FILLER_3_84
*610 FILLER_3_94
*611 FILLER_4_103
*612 FILLER_4_107
*613 FILLER_4_171
*614 FILLER_4_177
*615 FILLER_4_2
*616 FILLER_4_241
*617 FILLER_4_247
*618 FILLER_4_311
*619 FILLER_4_317
*620 FILLER_4_327
*621 FILLER_4_34
*622 FILLER_4_343
*623 FILLER_4_352
*624 FILLER_4_360
*625 FILLER_4_364
*626 FILLER_4_37
*627 FILLER_4_373
*628 FILLER_4_381
*629 FILLER_4_387
*630 FILLER_4_419
*631 FILLER_4_427
*632 FILLER_4_431
*633 FILLER_4_441
*634 FILLER_4_449
*635 FILLER_4_453
*636 FILLER_4_457
*637 FILLER_4_467
*638 FILLER_4_47
*639 FILLER_4_79
*640 FILLER_4_95
*641 FILLER_5_10
*642 FILLER_5_104
*643 FILLER_5_113
*644 FILLER_5_122
*645 FILLER_5_138
*646 FILLER_5_142
*647 FILLER_5_19
*648 FILLER_5_2
*649 FILLER_5_206
*650 FILLER_5_212
*651 FILLER_5_228
*652 FILLER_5_236
*653 FILLER_5_240
*654 FILLER_5_250
*655 FILLER_5_266
*656 FILLER_5_27
*657 FILLER_5_274
*658 FILLER_5_278
*659 FILLER_5_282
*660 FILLER_5_346
*661 FILLER_5_352
*662 FILLER_5_36
*663 FILLER_5_384
*664 FILLER_5_400
*665 FILLER_5_408
*666 FILLER_5_422
*667 FILLER_5_438
*668 FILLER_5_446
*669 FILLER_5_450
*670 FILLER_5_492
*671 FILLER_5_496
*672 FILLER_5_498
*673 FILLER_5_52
*674 FILLER_5_61
*675 FILLER_5_69
*676 FILLER_5_72
*677 FILLER_6_101
*678 FILLER_6_107
*679 FILLER_6_111
*680 FILLER_6_136
*681 FILLER_6_152
*682 FILLER_6_160
*683 FILLER_6_164
*684 FILLER_6_166
*685 FILLER_6_177
*686 FILLER_6_2
*687 FILLER_6_241
*688 FILLER_6_247
*689 FILLER_6_263
*690 FILLER_6_272
*691 FILLER_6_284
*692 FILLER_6_300
*693 FILLER_6_308
*694 FILLER_6_312
*695 FILLER_6_314
*696 FILLER_6_317
*697 FILLER_6_34
*698 FILLER_6_37
*699 FILLER_6_381
*700 FILLER_6_387
*701 FILLER_6_451
*702 FILLER_7_136
*703 FILLER_7_142
*704 FILLER_7_174
*705 FILLER_7_176
*706 FILLER_7_18
*707 FILLER_7_185
*708 FILLER_7_2
*709 FILLER_7_201
*710 FILLER_7_212
*711 FILLER_7_22
*712 FILLER_7_276
*713 FILLER_7_282
*714 FILLER_7_314
*715 FILLER_7_32
*716 FILLER_7_322
*717 FILLER_7_326
*718 FILLER_7_336
*719 FILLER_7_346
*720 FILLER_7_352
*721 FILLER_7_360
*722 FILLER_7_372
*723 FILLER_7_404
*724 FILLER_7_422
*725 FILLER_7_454
*726 FILLER_7_492
*727 FILLER_7_496
*728 FILLER_7_498
*729 FILLER_7_64
*730 FILLER_7_68
*731 FILLER_7_72
*732 FILLER_8_102
*733 FILLER_8_104
*734 FILLER_8_107
*735 FILLER_8_139
*736 FILLER_8_155
*737 FILLER_8_159
*738 FILLER_8_161
*739 FILLER_8_170
*740 FILLER_8_174
*741 FILLER_8_177
*742 FILLER_8_2
*743 FILLER_8_241
*744 FILLER_8_247
*745 FILLER_8_263
*746 FILLER_8_265
*747 FILLER_8_274
*748 FILLER_8_306
*749 FILLER_8_314
*750 FILLER_8_317
*751 FILLER_8_34
*752 FILLER_8_37
*753 FILLER_8_381
*754 FILLER_8_387
*755 FILLER_8_419
*756 FILLER_8_435
*757 FILLER_8_443
*758 FILLER_8_69
*759 FILLER_8_77
*760 FILLER_8_81
*761 FILLER_8_90
*762 FILLER_8_98
*763 FILLER_9_112
*764 FILLER_9_128
*765 FILLER_9_136
*766 FILLER_9_142
*767 FILLER_9_158
*768 FILLER_9_16
*769 FILLER_9_166
*770 FILLER_9_170
*771 FILLER_9_179
*772 FILLER_9_183
*773 FILLER_9_193
*774 FILLER_9_209
*775 FILLER_9_212
*776 FILLER_9_276
*777 FILLER_9_282
*778 FILLER_9_298
*779 FILLER_9_310
*780 FILLER_9_32
*781 FILLER_9_342
*782 FILLER_9_360
*783 FILLER_9_392
*784 FILLER_9_40
*785 FILLER_9_408
*786 FILLER_9_416
*787 FILLER_9_422
*788 FILLER_9_424
*789 FILLER_9_433
*790 FILLER_9_437
*791 FILLER_9_439
*792 FILLER_9_492
*793 FILLER_9_496
*794 FILLER_9_498
*795 FILLER_9_52
*796 FILLER_9_68
*797 FILLER_9_80
*798 PHY_EDGE_ROW_0_Left_16
*799 PHY_EDGE_ROW_0_Right_0
*800 PHY_EDGE_ROW_10_Left_26
*801 PHY_EDGE_ROW_10_Right_10
*802 PHY_EDGE_ROW_11_Left_27
*803 PHY_EDGE_ROW_11_Right_11
*804 PHY_EDGE_ROW_12_Left_28
*805 PHY_EDGE_ROW_12_Right_12
*806 PHY_EDGE_ROW_13_Left_29
*807 PHY_EDGE_ROW_13_Right_13
*808 PHY_EDGE_ROW_14_Left_30
*809 PHY_EDGE_ROW_14_Right_14
*810 PHY_EDGE_ROW_15_Left_31
*811 PHY_EDGE_ROW_15_Right_15
*812 PHY_EDGE_ROW_1_Left_17
*813 PHY_EDGE_ROW_1_Right_1
*814 PHY_EDGE_ROW_2_Left_18
*815 PHY_EDGE_ROW_2_Right_2
*816 PHY_EDGE_ROW_3_Left_19
*817 PHY_EDGE_ROW_3_Right_3
*818 PHY_EDGE_ROW_4_Left_20
*819 PHY_EDGE_ROW_4_Right_4
*820 PHY_EDGE_ROW_5_Left_21
*821 PHY_EDGE_ROW_5_Right_5
*822 PHY_EDGE_ROW_6_Left_22
*823 PHY_EDGE_ROW_6_Right_6
*824 PHY_EDGE_ROW_7_Left_23
*825 PHY_EDGE_ROW_7_Right_7
*826 PHY_EDGE_ROW_8_Left_24
*827 PHY_EDGE_ROW_8_Right_8
*828 PHY_EDGE_ROW_9_Left_25
*829 PHY_EDGE_ROW_9_Right_9
*830 S_term_single_106
*831 TAP_TAPCELL_ROW_0_32
*832 TAP_TAPCELL_ROW_0_33
*833 TAP_TAPCELL_ROW_0_34
*834 TAP_TAPCELL_ROW_0_35
*835 TAP_TAPCELL_ROW_0_36
*836 TAP_TAPCELL_ROW_0_37
*837 TAP_TAPCELL_ROW_0_38
*838 TAP_TAPCELL_ROW_0_39
*839 TAP_TAPCELL_ROW_0_40
*840 TAP_TAPCELL_ROW_0_41
*841 TAP_TAPCELL_ROW_0_42
*842 TAP_TAPCELL_ROW_0_43
*843 TAP_TAPCELL_ROW_0_44
*844 TAP_TAPCELL_ROW_0_45
*845 TAP_TAPCELL_ROW_10_109
*846 TAP_TAPCELL_ROW_10_110
*847 TAP_TAPCELL_ROW_10_111
*848 TAP_TAPCELL_ROW_10_112
*849 TAP_TAPCELL_ROW_10_113
*850 TAP_TAPCELL_ROW_10_114
*851 TAP_TAPCELL_ROW_10_115
*852 TAP_TAPCELL_ROW_11_116
*853 TAP_TAPCELL_ROW_11_117
*854 TAP_TAPCELL_ROW_11_118
*855 TAP_TAPCELL_ROW_11_119
*856 TAP_TAPCELL_ROW_11_120
*857 TAP_TAPCELL_ROW_11_121
*858 TAP_TAPCELL_ROW_11_122
*859 TAP_TAPCELL_ROW_12_123
*860 TAP_TAPCELL_ROW_12_124
*861 TAP_TAPCELL_ROW_12_125
*862 TAP_TAPCELL_ROW_12_126
*863 TAP_TAPCELL_ROW_12_127
*864 TAP_TAPCELL_ROW_12_128
*865 TAP_TAPCELL_ROW_12_129
*866 TAP_TAPCELL_ROW_13_130
*867 TAP_TAPCELL_ROW_13_131
*868 TAP_TAPCELL_ROW_13_132
*869 TAP_TAPCELL_ROW_13_133
*870 TAP_TAPCELL_ROW_13_134
*871 TAP_TAPCELL_ROW_13_135
*872 TAP_TAPCELL_ROW_13_136
*873 TAP_TAPCELL_ROW_14_137
*874 TAP_TAPCELL_ROW_14_138
*875 TAP_TAPCELL_ROW_14_139
*876 TAP_TAPCELL_ROW_14_140
*877 TAP_TAPCELL_ROW_14_141
*878 TAP_TAPCELL_ROW_14_142
*879 TAP_TAPCELL_ROW_14_143
*880 TAP_TAPCELL_ROW_15_144
*881 TAP_TAPCELL_ROW_15_145
*882 TAP_TAPCELL_ROW_15_146
*883 TAP_TAPCELL_ROW_15_147
*884 TAP_TAPCELL_ROW_15_148
*885 TAP_TAPCELL_ROW_15_149
*886 TAP_TAPCELL_ROW_15_150
*887 TAP_TAPCELL_ROW_15_151
*888 TAP_TAPCELL_ROW_15_152
*889 TAP_TAPCELL_ROW_15_153
*890 TAP_TAPCELL_ROW_15_154
*891 TAP_TAPCELL_ROW_15_155
*892 TAP_TAPCELL_ROW_15_156
*893 TAP_TAPCELL_ROW_15_157
*894 TAP_TAPCELL_ROW_1_46
*895 TAP_TAPCELL_ROW_1_47
*896 TAP_TAPCELL_ROW_1_48
*897 TAP_TAPCELL_ROW_1_49
*898 TAP_TAPCELL_ROW_1_50
*899 TAP_TAPCELL_ROW_1_51
*900 TAP_TAPCELL_ROW_1_52
*901 TAP_TAPCELL_ROW_2_53
*902 TAP_TAPCELL_ROW_2_54
*903 TAP_TAPCELL_ROW_2_55
*904 TAP_TAPCELL_ROW_2_56
*905 TAP_TAPCELL_ROW_2_57
*906 TAP_TAPCELL_ROW_2_58
*907 TAP_TAPCELL_ROW_2_59
*908 TAP_TAPCELL_ROW_3_60
*909 TAP_TAPCELL_ROW_3_61
*910 TAP_TAPCELL_ROW_3_62
*911 TAP_TAPCELL_ROW_3_63
*912 TAP_TAPCELL_ROW_3_64
*913 TAP_TAPCELL_ROW_3_65
*914 TAP_TAPCELL_ROW_3_66
*915 TAP_TAPCELL_ROW_4_67
*916 TAP_TAPCELL_ROW_4_68
*917 TAP_TAPCELL_ROW_4_69
*918 TAP_TAPCELL_ROW_4_70
*919 TAP_TAPCELL_ROW_4_71
*920 TAP_TAPCELL_ROW_4_72
*921 TAP_TAPCELL_ROW_4_73
*922 TAP_TAPCELL_ROW_5_74
*923 TAP_TAPCELL_ROW_5_75
*924 TAP_TAPCELL_ROW_5_76
*925 TAP_TAPCELL_ROW_5_77
*926 TAP_TAPCELL_ROW_5_78
*927 TAP_TAPCELL_ROW_5_79
*928 TAP_TAPCELL_ROW_5_80
*929 TAP_TAPCELL_ROW_6_81
*930 TAP_TAPCELL_ROW_6_82
*931 TAP_TAPCELL_ROW_6_83
*932 TAP_TAPCELL_ROW_6_84
*933 TAP_TAPCELL_ROW_6_85
*934 TAP_TAPCELL_ROW_6_86
*935 TAP_TAPCELL_ROW_6_87
*936 TAP_TAPCELL_ROW_7_88
*937 TAP_TAPCELL_ROW_7_89
*938 TAP_TAPCELL_ROW_7_90
*939 TAP_TAPCELL_ROW_7_91
*940 TAP_TAPCELL_ROW_7_92
*941 TAP_TAPCELL_ROW_7_93
*942 TAP_TAPCELL_ROW_7_94
*943 TAP_TAPCELL_ROW_8_100
*944 TAP_TAPCELL_ROW_8_101
*945 TAP_TAPCELL_ROW_8_95
*946 TAP_TAPCELL_ROW_8_96
*947 TAP_TAPCELL_ROW_8_97
*948 TAP_TAPCELL_ROW_8_98
*949 TAP_TAPCELL_ROW_8_99
*950 TAP_TAPCELL_ROW_9_102
*951 TAP_TAPCELL_ROW_9_103
*952 TAP_TAPCELL_ROW_9_104
*953 TAP_TAPCELL_ROW_9_105
*954 TAP_TAPCELL_ROW_9_106
*955 TAP_TAPCELL_ROW_9_107
*956 TAP_TAPCELL_ROW_9_108
*957 _001_
*958 _002_
*959 _003_
*960 _004_
*961 _005_
*962 _006_
*963 _007_
*964 _008_
*965 _009_
*966 _010_
*967 _011_
*968 _012_
*969 _013_
*970 _014_
*971 _015_
*972 _016_
*973 _017_
*974 _018_
*975 _019_
*976 _020_
*977 _021_
*978 _022_
*979 _023_
*980 _024_
*981 _025_
*982 _026_
*983 _027_
*984 _028_
*985 _029_
*986 _030_
*987 _031_
*988 _032_
*989 _033_
*990 _034_
*991 _035_
*992 _036_
*993 _037_
*994 _038_
*995 _039_
*996 _040_
*997 _041_
*998 _042_
*999 _043_
*1000 _044_
*1001 _045_
*1002 _046_
*1003 _047_
*1004 _048_
*1005 _049_
*1006 _050_
*1007 _051_
*1008 _052_
*1009 _053_
*1010 _054_
*1011 _055_
*1012 _056_
*1013 _057_
*1014 _058_
*1015 _059_
*1016 _060_
*1017 _061_
*1018 _062_
*1019 _063_
*1020 _064_
*1021 _065_
*1022 _066_
*1023 _067_
*1024 _068_
*1025 _069_
*1026 _070_
*1027 _071_
*1028 _072_
*1029 _073_
*1030 _074_
*1031 _075_
*1032 _076_
*1033 _077_
*1034 _078_
*1035 _079_
*1036 _080_
*1037 _081_
*1038 _082_
*1039 _083_
*1040 _084_
*1041 _085_
*1042 _086_
*1043 _087_
*1044 _088_
*1045 _089_
*1046 _090_
*1047 _091_
*1048 _092_
*1049 _093_
*1050 _094_
*1051 _095_
*1052 _096_
*1053 _097_
*1054 _098_
*1055 _099_
*1056 _100_
*1057 _101_
*1058 _102_
*1059 _103_
*1060 _104_
*1061 _105_
*1062 output1
*1063 output10
*1064 output100
*1065 output101
*1066 output102
*1067 output103
*1068 output104
*1069 output105
*1070 output11
*1071 output12
*1072 output13
*1073 output14
*1074 output15
*1075 output16
*1076 output17
*1077 output18
*1078 output19
*1079 output2
*1080 output20
*1081 output21
*1082 output22
*1083 output23
*1084 output24
*1085 output25
*1086 output26
*1087 output27
*1088 output28
*1089 output29
*1090 output3
*1091 output30
*1092 output31
*1093 output32
*1094 output33
*1095 output34
*1096 output35
*1097 output36
*1098 output37
*1099 output38
*1100 output39
*1101 output4
*1102 output40
*1103 output41
*1104 output42
*1105 output43
*1106 output44
*1107 output45
*1108 output46
*1109 output47
*1110 output48
*1111 output49
*1112 output5
*1113 output50
*1114 output51
*1115 output52
*1116 output53
*1117 output54
*1118 output55
*1119 output56
*1120 output57
*1121 output58
*1122 output59
*1123 output6
*1124 output60
*1125 output61
*1126 output62
*1127 output63
*1128 output64
*1129 output65
*1130 output66
*1131 output67
*1132 output68
*1133 output69
*1134 output7
*1135 output70
*1136 output71
*1137 output72
*1138 output73
*1139 output74
*1140 output75
*1141 output76
*1142 output77
*1143 output78
*1144 output79
*1145 output8
*1146 output80
*1147 output81
*1148 output82
*1149 output83
*1150 output84
*1151 output85
*1152 output86
*1153 output87
*1154 output88
*1155 output89
*1156 output9
*1157 output90
*1158 output91
*1159 output92
*1160 output93
*1161 output94
*1162 output95
*1163 output96
*1164 output97
*1165 output98
*1166 output99

*PORTS
Co O
FrameData[0] I
FrameData[10] I
FrameData[11] I
FrameData[12] I
FrameData[13] I
FrameData[14] I
FrameData[15] I
FrameData[16] I
FrameData[17] I
FrameData[18] I
FrameData[19] I
FrameData[1] I
FrameData[20] I
FrameData[21] I
FrameData[22] I
FrameData[23] I
FrameData[24] I
FrameData[25] I
FrameData[26] I
FrameData[27] I
FrameData[28] I
FrameData[29] I
FrameData[2] I
FrameData[30] I
FrameData[31] I
FrameData[3] I
FrameData[4] I
FrameData[5] I
FrameData[6] I
FrameData[7] I
FrameData[8] I
FrameData[9] I
FrameData_O[0] O
FrameData_O[10] O
FrameData_O[11] O
FrameData_O[12] O
FrameData_O[13] O
FrameData_O[14] O
FrameData_O[15] O
FrameData_O[16] O
FrameData_O[17] O
FrameData_O[18] O
FrameData_O[19] O
FrameData_O[1] O
FrameData_O[20] O
FrameData_O[21] O
FrameData_O[22] O
FrameData_O[23] O
FrameData_O[24] O
FrameData_O[25] O
FrameData_O[26] O
FrameData_O[27] O
FrameData_O[28] O
FrameData_O[29] O
FrameData_O[2] O
FrameData_O[30] O
FrameData_O[31] O
FrameData_O[3] O
FrameData_O[4] O
FrameData_O[5] O
FrameData_O[6] O
FrameData_O[7] O
FrameData_O[8] O
FrameData_O[9] O
FrameStrobe[0] I
FrameStrobe[10] I
FrameStrobe[11] I
FrameStrobe[12] I
FrameStrobe[13] I
FrameStrobe[14] I
FrameStrobe[15] I
FrameStrobe[16] I
FrameStrobe[17] I
FrameStrobe[18] I
FrameStrobe[19] I
FrameStrobe[1] I
FrameStrobe[2] I
FrameStrobe[3] I
FrameStrobe[4] I
FrameStrobe[5] I
FrameStrobe[6] I
FrameStrobe[7] I
FrameStrobe[8] I
FrameStrobe[9] I
FrameStrobe_O[0] O
FrameStrobe_O[10] O
FrameStrobe_O[11] O
FrameStrobe_O[12] O
FrameStrobe_O[13] O
FrameStrobe_O[14] O
FrameStrobe_O[15] O
FrameStrobe_O[16] O
FrameStrobe_O[17] O
FrameStrobe_O[18] O
FrameStrobe_O[19] O
FrameStrobe_O[1] O
FrameStrobe_O[2] O
FrameStrobe_O[3] O
FrameStrobe_O[4] O
FrameStrobe_O[5] O
FrameStrobe_O[6] O
FrameStrobe_O[7] O
FrameStrobe_O[8] O
FrameStrobe_O[9] O
N1BEG[0] O
N1BEG[1] O
N1BEG[2] O
N1BEG[3] O
N2BEG[0] O
N2BEG[1] O
N2BEG[2] O
N2BEG[3] O
N2BEG[4] O
N2BEG[5] O
N2BEG[6] O
N2BEG[7] O
N2BEGb[0] O
N2BEGb[1] O
N2BEGb[2] O
N2BEGb[3] O
N2BEGb[4] O
N2BEGb[5] O
N2BEGb[6] O
N2BEGb[7] O
N4BEG[0] O
N4BEG[10] O
N4BEG[11] O
N4BEG[12] O
N4BEG[13] O
N4BEG[14] O
N4BEG[15] O
N4BEG[1] O
N4BEG[2] O
N4BEG[3] O
N4BEG[4] O
N4BEG[5] O
N4BEG[6] O
N4BEG[7] O
N4BEG[8] O
N4BEG[9] O
NN4BEG[0] O
NN4BEG[10] O
NN4BEG[11] O
NN4BEG[12] O
NN4BEG[13] O
NN4BEG[14] O
NN4BEG[15] O
NN4BEG[1] O
NN4BEG[2] O
NN4BEG[3] O
NN4BEG[4] O
NN4BEG[5] O
NN4BEG[6] O
NN4BEG[7] O
NN4BEG[8] O
NN4BEG[9] O
S1END[0] I
S1END[1] I
S1END[2] I
S1END[3] I
S2END[0] I
S2END[1] I
S2END[2] I
S2END[3] I
S2END[4] I
S2END[5] I
S2END[6] I
S2END[7] I
S2MID[0] I
S2MID[1] I
S2MID[2] I
S2MID[3] I
S2MID[4] I
S2MID[5] I
S2MID[6] I
S2MID[7] I
S4END[0] I
S4END[10] I
S4END[11] I
S4END[12] I
S4END[13] I
S4END[14] I
S4END[15] I
S4END[1] I
S4END[2] I
S4END[3] I
S4END[4] I
S4END[5] I
S4END[6] I
S4END[7] I
S4END[8] I
S4END[9] I
SS4END[0] I
SS4END[10] I
SS4END[11] I
SS4END[12] I
SS4END[13] I
SS4END[14] I
SS4END[15] I
SS4END[1] I
SS4END[2] I
SS4END[3] I
SS4END[4] I
SS4END[5] I
SS4END[6] I
SS4END[7] I
SS4END[8] I
SS4END[9] I
UserCLK I
UserCLKo O

*D_NET *1 0.00305571
*CONN
*P Co O
*I *830:ZN O *D gf180mcu_fd_sc_mcu7t5v0__tiel
*CAP
1 Co 0.000503783
2 *830:ZN 0.000503783
3 Co NN4BEG[14] 0
4 Co NN4BEG[15] 0.000278098
5 Co *1158:I 1.23748e-05
6 Co *1162:I 3.35189e-05
7 Co *158:17 7.69789e-05
8 Co *159:25 3.35189e-05
9 Co *201:51 0.000723306
10 Co *267:14 3.70845e-06
11 Co *286:18 0.000188241
12 Co *289:46 0.000698399
*RES
1 *830:ZN Co 18.232 
*END

*D_NET *2 0.0815619
*CONN
*P FrameData[0] I
*I *957:I I *D gf180mcu_fd_sc_mcu7t5v0__buf_2
*CAP
1 FrameData[0] 0.00263216
2 *957:I 0.00105143
3 *2:77 0.00277251
4 *2:61 0.00413241
5 *2:45 0.00469509
6 *2:19 0.00491593
7 *957:I *1003:I 0.000229837
8 *957:I *1019:I 0.00138685
9 *957:I *30:103 0.000168642
10 *957:I *196:23 0.00324516
11 *957:I *200:37 3.99846e-05
12 *957:I *204:15 0.000934519
13 *957:I *261:32 2.20647e-05
14 *957:I *265:74 0
15 *957:I *273:16 0.000314028
16 *957:I *279:16 0
17 *957:I *286:40 0.000560675
18 *957:I *289:18 9.83249e-05
19 *2:19 *989:I 0.000421314
20 *2:19 *1046:I 0.000500429
21 *2:19 *1047:I 0.000779923
22 *2:19 *1059:I 3.01277e-05
23 *2:19 *1061:I 6.45332e-05
24 *2:19 *10:43 0.000677628
25 *2:19 *13:17 0.000173859
26 *2:19 *17:49 0.000103113
27 *2:19 *24:25 0.000706152
28 *2:19 *27:25 0
29 *2:19 *28:19 0.000113027
30 *2:19 *29:17 0
31 *2:19 *216:14 2.02597e-05
32 *2:19 *268:54 0
33 *2:19 *313:28 0.000887299
34 *2:19 *317:26 0.00238316
35 *2:45 N4BEG[10] 0.000352347
36 *2:45 N4BEG[14] 3.22108e-05
37 *2:45 *981:I 6.66572e-05
38 *2:45 *995:I 5.08941e-05
39 *2:45 *1059:I 0.00331868
40 *2:45 *1068:I 0.0021584
41 *2:45 *1130:I 8.11919e-05
42 *2:45 *1138:I 0.00162815
43 *2:45 *1144:I 0.00109942
44 *2:45 *1146:I 0.000422799
45 *2:45 *1149:I 0
46 *2:45 *1150:I 2.73592e-05
47 *2:45 *1163:I 0.00251897
48 *2:45 *1164:I 0
49 *2:45 *7:27 0.00178248
50 *2:45 *7:47 0.000942567
51 *2:45 *8:15 0.00187145
52 *2:45 *187:15 3.49075e-05
53 *2:45 *188:45 0.000373379
54 *2:45 *197:69 1.65086e-05
55 *2:45 *201:73 0.000494031
56 *2:45 *303:72 0.000128703
57 *2:61 *998:I 0.00113972
58 *2:61 *1139:I 0.000775213
59 *2:61 *24:113 0.000304187
60 *2:61 *31:45 0.00116439
61 *2:61 *75:31 2.24654e-05
62 *2:61 *82:31 0.000680568
63 *2:61 *195:45 0.000513353
64 *2:61 *196:57 3.13827e-05
65 *2:61 *203:63 0.000743027
66 *2:61 *207:23 7.39149e-05
67 *2:61 *228:42 8.16884e-06
68 *2:61 *260:26 0.000844673
69 *2:61 *260:40 0.0036146
70 *2:61 *265:30 0.00185182
71 *2:61 *268:54 4.88183e-05
72 *2:61 *277:56 6.20409e-05
73 *2:61 *288:48 0.0013677
74 *2:61 *302:46 3.13621e-05
75 *2:77 *1011:I 0.00226461
76 *2:77 *1034:I 0.00109454
77 *2:77 *22:51 6.41856e-05
78 *2:77 *28:83 0.00243635
79 *2:77 *30:65 1.07369e-05
80 *2:77 *72:53 0.000349477
81 *2:77 *167:17 8.97165e-05
82 *2:77 *197:61 0.000150871
83 *2:77 *246:66 5.17489e-05
84 *2:77 *246:72 0.000107648
85 *2:77 *248:24 0.000103788
86 *2:77 *258:30 0.00335245
87 *2:77 *264:20 0.00315099
88 *2:77 *277:20 8.76842e-05
89 *2:77 *279:16 0.00314404
90 *2:77 *308:20 0.000364151
*RES
1 FrameData[0] *2:19 44.364 
2 *2:19 *2:45 46.988 
3 *2:45 *2:61 47.328 
4 *2:61 *2:77 46.912 
5 *2:77 *957:I 29.1 
*END

*D_NET *3 0.058412
*CONN
*P FrameData[10] I
*I *967:I I *D gf180mcu_fd_sc_mcu7t5v0__buf_2
*CAP
1 FrameData[10] 0.00127095
2 *967:I 0.000968826
3 *3:47 0.00243317
4 *3:21 0.00273529
5 *967:I *1082:I 0.000381962
6 *967:I *4:83 0.000160408
7 *967:I *22:51 0.00247504
8 *967:I *22:65 0.003606
9 *967:I *29:33 3.41124e-05
10 *967:I *161:37 0.000199318
11 *967:I *175:63 0.0041442
12 *967:I *176:25 0.00186939
13 *967:I *257:88 0.000926311
14 *967:I *265:52 0.00208032
15 *967:I *287:88 0.0012318
16 *3:21 *976:I 0.000911543
17 *3:21 *1058:I 0.00352597
18 *3:21 *1061:I 4.61988e-05
19 *3:21 *4:27 0.00241035
20 *3:21 *5:19 0.000101261
21 *3:21 *6:23 0.00129825
22 *3:21 *23:33 0.0005947
23 *3:21 *33:23 0.00372786
24 *3:21 *203:79 5.37139e-05
25 *3:21 *221:16 0.000522603
26 *3:21 *246:22 0.000603917
27 *3:21 *307:20 0.00306839
28 *3:47 *966:I 0.000138302
29 *3:47 *970:I 0.00469988
30 *3:47 *1143:I 0.00139376
31 *3:47 *4:27 0.000996614
32 *3:47 *19:47 9.35542e-06
33 *3:47 *29:33 0.000721626
34 *3:47 *30:41 6.34009e-05
35 *3:47 *75:31 0.00315395
36 *3:47 *202:89 0.000696767
37 *3:47 *203:79 5.12871e-05
38 *3:47 *209:111 0.000299266
39 *3:47 *247:32 3.22108e-05
40 *3:47 *260:26 0.00127129
41 *3:47 *285:20 0.00134524
42 *3:47 *287:88 0.0021572
*RES
1 FrameData[10] *3:21 47.38 
2 *3:21 *3:47 47.9743 
3 *3:47 *967:I 35.832 
*END

*D_NET *4 0.0784143
*CONN
*P FrameData[11] I
*I *968:I I *D gf180mcu_fd_sc_mcu7t5v0__buf_2
*CAP
1 FrameData[11] 0.00288458
2 *968:I 6.21629e-05
3 *4:105 0.00274064
4 *4:83 0.00515414
5 *4:61 0.00381568
6 *4:27 0.0042246
7 *968:I *1094:I 2.16732e-05
8 *968:I *247:106 6.32895e-05
9 *4:27 *976:I 5.92038e-05
10 *4:27 *1045:I 0.00318891
11 *4:27 *1058:I 0.000452164
12 *4:27 *1143:I 0.000228382
13 *4:27 *5:19 0.000197078
14 *4:27 *10:23 0.00160208
15 *4:27 *17:61 6.88652e-05
16 *4:27 *28:61 0.000226138
17 *4:27 *195:45 0.00112178
18 *4:27 *200:95 0.000127465
19 *4:27 *203:79 5.12871e-05
20 *4:27 *209:111 0.000126784
21 *4:27 *221:16 0.00243382
22 *4:27 *222:42 0.000147933
23 *4:27 *247:32 2.85135e-05
24 *4:27 *269:56 0.00198521
25 *4:27 *285:20 0.000852017
26 *4:27 *302:46 0
27 *4:27 *313:54 0.000356361
28 *4:61 *975:I 0.000186447
29 *4:61 *1146:I 0.00224365
30 *4:61 *14:27 0.000354154
31 *4:61 *21:43 1.89425e-05
32 *4:61 *21:65 1.02177e-06
33 *4:61 *32:71 0.000132317
34 *4:61 *188:23 0.00146047
35 *4:61 *188:45 0.00374665
36 *4:61 *199:55 0
37 *4:61 *200:95 0.00016654
38 *4:61 *209:79 0.00100842
39 *4:61 *209:111 0.000176056
40 *4:61 *226:18 0.00182849
41 *4:61 *257:66 0.00118728
42 *4:61 *273:56 0.00173235
43 *4:61 *277:42 0
44 *4:61 *277:56 1.96881e-05
45 *4:61 *280:60 2.04461e-05
46 *4:83 *970:I 0.000273627
47 *4:83 *1001:I 3.99951e-05
48 *4:83 *1030:I 6.16445e-05
49 *4:83 *22:51 0.000452491
50 *4:83 *32:113 0.00120451
51 *4:83 *159:25 2.86369e-06
52 *4:83 *170:23 0
53 *4:83 *176:25 0.000883283
54 *4:83 *178:25 7.52999e-06
55 *4:83 *195:27 0.00074176
56 *4:83 *209:63 0.00226548
57 *4:83 *209:79 0.000459604
58 *4:83 *234:10 0.00246455