*SPEF "ieee 1481-1999"
*DESIGN "S_term_SRAM"
*DATE "11:08:39 Friday November 28, 2025"
*VENDOR "The OpenROAD Project"
*PROGRAM "OpenROAD"
*VERSION "341650e72dad0dc8571822ff8c5d9c5e365327f7"
*DESIGN_FLOW "NAME_SCOPE LOCAL" "PIN_CAP NONE"
*DIVIDER /
*DELIMITER :
*BUS_DELIMITER []
*T_UNIT 1 NS
*C_UNIT 1 PF
*R_UNIT 1 OHM
*L_UNIT 1 HENRY

*NAME_MAP
*1 FrameData[0]
*2 FrameData[10]
*3 FrameData[11]
*4 FrameData[12]
*5 FrameData[13]
*6 FrameData[14]
*7 FrameData[15]
*8 FrameData[16]
*9 FrameData[17]
*10 FrameData[18]
*11 FrameData[19]
*12 FrameData[1]
*13 FrameData[20]
*14 FrameData[21]
*15 FrameData[22]
*16 FrameData[23]
*17 FrameData[24]
*18 FrameData[25]
*19 FrameData[26]
*20 FrameData[27]
*21 FrameData[28]
*22 FrameData[29]
*23 FrameData[2]
*24 FrameData[30]
*25 FrameData[31]
*26 FrameData[3]
*27 FrameData[4]
*28 FrameData[5]
*29 FrameData[6]
*30 FrameData[7]
*31 FrameData[8]
*32 FrameData[9]
*33 FrameData_O[0]
*34 FrameData_O[10]
*35 FrameData_O[11]
*36 FrameData_O[12]
*37 FrameData_O[13]
*38 FrameData_O[14]
*39 FrameData_O[15]
*40 FrameData_O[16]
*41 FrameData_O[17]
*42 FrameData_O[18]
*43 FrameData_O[19]
*44 FrameData_O[1]
*45 FrameData_O[20]
*46 FrameData_O[21]
*47 FrameData_O[22]
*48 FrameData_O[23]
*49 FrameData_O[24]
*50 FrameData_O[25]
*51 FrameData_O[26]
*52 FrameData_O[27]
*53 FrameData_O[28]
*54 FrameData_O[29]
*55 FrameData_O[2]
*56 FrameData_O[30]
*57 FrameData_O[31]
*58 FrameData_O[3]
*59 FrameData_O[4]
*60 FrameData_O[5]
*61 FrameData_O[6]
*62 FrameData_O[7]
*63 FrameData_O[8]
*64 FrameData_O[9]
*65 FrameStrobe[0]
*66 FrameStrobe[10]
*67 FrameStrobe[11]
*68 FrameStrobe[12]
*69 FrameStrobe[13]
*70 FrameStrobe[14]
*71 FrameStrobe[15]
*72 FrameStrobe[16]
*73 FrameStrobe[17]
*74 FrameStrobe[18]
*75 FrameStrobe[19]
*76 FrameStrobe[1]
*77 FrameStrobe[2]
*78 FrameStrobe[3]
*79 FrameStrobe[4]
*80 FrameStrobe[5]
*81 FrameStrobe[6]
*82 FrameStrobe[7]
*83 FrameStrobe[8]
*84 FrameStrobe[9]
*85 FrameStrobe_O[0]
*86 FrameStrobe_O[10]
*87 FrameStrobe_O[11]
*88 FrameStrobe_O[12]
*89 FrameStrobe_O[13]
*90 FrameStrobe_O[14]
*91 FrameStrobe_O[15]
*92 FrameStrobe_O[16]
*93 FrameStrobe_O[17]
*94 FrameStrobe_O[18]
*95 FrameStrobe_O[19]
*96 FrameStrobe_O[1]
*97 FrameStrobe_O[2]
*98 FrameStrobe_O[3]
*99 FrameStrobe_O[4]
*100 FrameStrobe_O[5]
*101 FrameStrobe_O[6]
*102 FrameStrobe_O[7]
*103 FrameStrobe_O[8]
*104 FrameStrobe_O[9]
*105 N1BEG[0]
*106 N1BEG[1]
*107 N1BEG[2]
*108 N1BEG[3]
*109 N2BEG[0]
*110 N2BEG[1]
*111 N2BEG[2]
*112 N2BEG[3]
*113 N2BEG[4]
*114 N2BEG[5]
*115 N2BEG[6]
*116 N2BEG[7]
*117 N2BEGb[0]
*118 N2BEGb[1]
*119 N2BEGb[2]
*120 N2BEGb[3]
*121 N2BEGb[4]
*122 N2BEGb[5]
*123 N2BEGb[6]
*124 N2BEGb[7]
*125 N4BEG[0]
*126 N4BEG[10]
*127 N4BEG[11]
*128 N4BEG[12]
*129 N4BEG[13]
*130 N4BEG[14]
*131 N4BEG[15]
*132 N4BEG[1]
*133 N4BEG[2]
*134 N4BEG[3]
*135 N4BEG[4]
*136 N4BEG[5]
*137 N4BEG[6]
*138 N4BEG[7]
*139 N4BEG[8]
*140 N4BEG[9]
*141 S1END[0]
*142 S1END[1]
*143 S1END[2]
*144 S1END[3]
*145 S2END[0]
*146 S2END[1]
*147 S2END[2]
*148 S2END[3]
*149 S2END[4]
*150 S2END[5]
*151 S2END[6]
*152 S2END[7]
*153 S2MID[0]
*154 S2MID[1]
*155 S2MID[2]
*156 S2MID[3]
*157 S2MID[4]
*158 S2MID[5]
*159 S2MID[6]
*160 S2MID[7]
*161 S4END[0]
*162 S4END[10]
*163 S4END[11]
*164 S4END[12]
*165 S4END[13]
*166 S4END[14]
*167 S4END[15]
*168 S4END[1]
*169 S4END[2]
*170 S4END[3]
*171 S4END[4]
*172 S4END[5]
*173 S4END[6]
*174 S4END[7]
*175 S4END[8]
*176 S4END[9]
*177 UserCLK
*178 UserCLKo
*181 net1
*182 net10
*183 net11
*184 net12
*185 net13
*186 net14
*187 net15
*188 net16
*189 net17
*190 net18
*191 net19
*192 net2
*193 net20
*194 net21
*195 net22
*196 net23
*197 net24
*198 net25
*199 net26
*200 net27
*201 net28
*202 net29
*203 net3
*204 net30
*205 net31
*206 net32
*207 net33
*208 net34
*209 net35
*210 net36
*211 net37
*212 net38
*213 net39
*214 net4
*215 net40
*216 net41
*217 net42
*218 net43
*219 net44
*220 net45
*221 net46
*222 net47
*223 net48
*224 net49
*225 net5
*226 net50
*227 net51
*228 net52
*229 net53
*230 net54
*231 net55
*232 net56
*233 net57
*234 net58
*235 net59
*236 net6
*237 net60
*238 net61
*239 net62
*240 net63
*241 net64
*242 net65
*243 net66
*244 net67
*245 net68
*246 net69
*247 net7
*248 net70
*249 net71
*250 net72
*251 net73
*252 net74
*253 net75
*254 net76
*255 net77
*256 net78
*257 net79
*258 net8
*259 net80
*260 net81
*261 net82
*262 net83
*263 net84
*264 net85
*265 net86
*266 net87
*267 net88
*268 net89
*269 net9
*270 FILLER_0_101
*271 FILLER_0_104
*272 FILLER_0_113
*273 FILLER_0_121
*274 FILLER_0_125
*275 FILLER_0_127
*276 FILLER_0_146
*277 FILLER_0_150
*278 FILLER_0_160
*279 FILLER_0_168
*280 FILLER_0_178
*281 FILLER_0_180
*282 FILLER_0_189
*283 FILLER_0_193
*284 FILLER_0_195
*285 FILLER_0_2
*286 FILLER_0_206
*287 FILLER_0_240
*288 FILLER_0_36
*289 FILLER_0_70
*290 FILLER_0_86
*291 FILLER_0_90
*292 FILLER_0_99
*293 FILLER_10_103
*294 FILLER_10_107
*295 FILLER_10_123
*296 FILLER_10_127
*297 FILLER_10_136
*298 FILLER_10_138
*299 FILLER_10_147
*300 FILLER_10_163
*301 FILLER_10_171
*302 FILLER_10_177
*303 FILLER_10_18
*304 FILLER_10_193
*305 FILLER_10_197
*306 FILLER_10_2
*307 FILLER_10_214
*308 FILLER_10_216
*309 FILLER_10_34
*310 FILLER_10_37
*311 FILLER_11_105
*312 FILLER_11_107
*313 FILLER_11_124
*314 FILLER_11_142
*315 FILLER_11_174
*316 FILLER_11_178
*317 FILLER_11_18
*318 FILLER_11_180
*319 FILLER_11_189
*320 FILLER_11_2
*321 FILLER_11_207
*322 FILLER_11_209
*323 FILLER_11_240
*324 FILLER_11_26
*325 FILLER_11_72
*326 FILLER_11_76
*327 FILLER_12_129
*328 FILLER_12_146
*329 FILLER_12_166
*330 FILLER_12_18
*331 FILLER_12_2
*332 FILLER_12_20
*333 FILLER_12_241
*334 FILLER_12_37
*335 FILLER_13_123
*336 FILLER_13_127
*337 FILLER_13_137
*338 FILLER_13_139
*339 FILLER_13_142
*340 FILLER_13_158
*341 FILLER_13_166
*342 FILLER_13_18
*343 FILLER_13_183
*344 FILLER_13_192
*345 FILLER_13_194
*346 FILLER_13_2
*347 FILLER_13_209
*348 FILLER_13_254
*349 FILLER_13_72
*350 FILLER_14_107
*351 FILLER_14_165
*352 FILLER_14_18
*353 FILLER_14_2
*354 FILLER_14_20
*355 FILLER_14_241
*356 FILLER_14_37
*357 FILLER_15_104
*358 FILLER_15_127
*359 FILLER_15_138
*360 FILLER_15_146
*361 FILLER_15_150
*362 FILLER_15_159
*363 FILLER_15_161
*364 FILLER_15_172
*365 FILLER_15_174
*366 FILLER_15_2
*367 FILLER_15_203
*368 FILLER_15_234
*369 FILLER_15_268
*370 FILLER_15_36
*371 FILLER_15_70
*372 FILLER_1_104
*373 FILLER_1_128
*374 FILLER_1_142
*375 FILLER_1_158
*376 FILLER_1_167
*377 FILLER_1_176
*378 FILLER_1_194
*379 FILLER_1_2
*380 FILLER_1_203
*381 FILLER_1_207
*382 FILLER_1_209
*383 FILLER_1_212
*384 FILLER_1_216
*385 FILLER_1_225
*386 FILLER_1_66
*387 FILLER_1_72
*388 FILLER_2_101
*389 FILLER_2_107
*390 FILLER_2_115
*391 FILLER_2_117
*392 FILLER_2_126
*393 FILLER_2_146
*394 FILLER_2_155
*395 FILLER_2_171
*396 FILLER_2_177
*397 FILLER_2_193
*398 FILLER_2_2
*399 FILLER_2_201
*400 FILLER_2_211
*401 FILLER_2_219
*402 FILLER_2_228
*403 FILLER_2_230
*404 FILLER_2_34
*405 FILLER_2_37
*406 FILLER_3_104
*407 FILLER_3_112
*408 FILLER_3_116
*409 FILLER_3_125
*410 FILLER_3_133
*411 FILLER_3_137
*412 FILLER_3_139
*413 FILLER_3_142
*414 FILLER_3_2
*415 FILLER_3_206
*416 FILLER_3_212
*417 FILLER_3_228
*418 FILLER_3_238
*419 FILLER_3_240
*420 FILLER_3_66
*421 FILLER_3_72
*422 FILLER_4_101
*423 FILLER_4_107
*424 FILLER_4_131
*425 FILLER_4_141
*426 FILLER_4_173
*427 FILLER_4_177
*428 FILLER_4_2
*429 FILLER_4_241
*430 FILLER_4_247
*431 FILLER_4_34
*432 FILLER_4_37
*433 FILLER_5_104
*434 FILLER_5_112
*435 FILLER_5_130
*436 FILLER_5_142
*437 FILLER_5_159
*438 FILLER_5_191
*439 FILLER_5_2
*440 FILLER_5_207
*441 FILLER_5_209
*442 FILLER_5_212
*443 FILLER_5_228
*444 FILLER_5_236
*445 FILLER_5_240
*446 FILLER_5_66
*447 FILLER_5_72
*448 FILLER_6_101
*449 FILLER_6_107
*450 FILLER_6_115
*451 FILLER_6_119
*452 FILLER_6_121
*453 FILLER_6_130
*454 FILLER_6_162
*455 FILLER_6_170
*456 FILLER_6_174
*457 FILLER_6_177
*458 FILLER_6_2
*459 FILLER_6_241
*460 FILLER_6_247
*461 FILLER_6_34
*462 FILLER_6_37
*463 FILLER_7_104
*464 FILLER_7_120
*465 FILLER_7_129
*466 FILLER_7_137
*467 FILLER_7_139
*468 FILLER_7_150
*469 FILLER_7_182
*470 FILLER_7_198
*471 FILLER_7_2
*472 FILLER_7_206
*473 FILLER_7_212
*474 FILLER_7_220
*475 FILLER_7_224
*476 FILLER_7_226
*477 FILLER_7_34
*478 FILLER_7_50
*479 FILLER_7_58
*480 FILLER_7_72
*481 FILLER_8_101
*482 FILLER_8_107
*483 FILLER_8_123
*484 FILLER_8_140
*485 FILLER_8_172
*486 FILLER_8_174
*487 FILLER_8_177
*488 FILLER_8_2
*489 FILLER_8_209
*490 FILLER_8_247
*491 FILLER_8_34
*492 FILLER_8_37
*493 FILLER_8_53
*494 FILLER_8_62
*495 FILLER_8_64
*496 FILLER_8_73
*497 FILLER_8_81
*498 FILLER_8_93
*499 FILLER_9_107
*500 FILLER_9_123
*501 FILLER_9_131
*502 FILLER_9_142
*503 FILLER_9_2
*504 FILLER_9_206
*505 FILLER_9_212
*506 FILLER_9_80
*507 FILLER_9_90
*508 PHY_EDGE_ROW_0_Left_16
*509 PHY_EDGE_ROW_0_Right_0
*510 PHY_EDGE_ROW_10_Left_26
*511 PHY_EDGE_ROW_10_Right_10
*512 PHY_EDGE_ROW_11_Left_27
*513 PHY_EDGE_ROW_11_Right_11
*514 PHY_EDGE_ROW_12_Left_28
*515 PHY_EDGE_ROW_12_Right_12
*516 PHY_EDGE_ROW_13_Left_29
*517 PHY_EDGE_ROW_13_Right_13
*518 PHY_EDGE_ROW_14_Left_30
*519 PHY_EDGE_ROW_14_Right_14
*520 PHY_EDGE_ROW_15_Left_31
*521 PHY_EDGE_ROW_15_Right_15
*522 PHY_EDGE_ROW_1_Left_17
*523 PHY_EDGE_ROW_1_Right_1
*524 PHY_EDGE_ROW_2_Left_18
*525 PHY_EDGE_ROW_2_Right_2
*526 PHY_EDGE_ROW_3_Left_19
*527 PHY_EDGE_ROW_3_Right_3
*528 PHY_EDGE_ROW_4_Left_20
*529 PHY_EDGE_ROW_4_Right_4
*530 PHY_EDGE_ROW_5_Left_21
*531 PHY_EDGE_ROW_5_Right_5
*532 PHY_EDGE_ROW_6_Left_22
*533 PHY_EDGE_ROW_6_Right_6
*534 PHY_EDGE_ROW_7_Left_23
*535 PHY_EDGE_ROW_7_Right_7
*536 PHY_EDGE_ROW_8_Left_24
*537 PHY_EDGE_ROW_8_Right_8
*538 PHY_EDGE_ROW_9_Left_25
*539 PHY_EDGE_ROW_9_Right_9
*540 TAP_TAPCELL_ROW_0_32
*541 TAP_TAPCELL_ROW_0_33
*542 TAP_TAPCELL_ROW_0_34
*543 TAP_TAPCELL_ROW_0_35
*544 TAP_TAPCELL_ROW_0_36
*545 TAP_TAPCELL_ROW_0_37
*546 TAP_TAPCELL_ROW_0_38
*547 TAP_TAPCELL_ROW_10_70
*548 TAP_TAPCELL_ROW_10_71
*549 TAP_TAPCELL_ROW_10_72
*550 TAP_TAPCELL_ROW_10_73
*551 TAP_TAPCELL_ROW_11_74
*552 TAP_TAPCELL_ROW_11_75
*553 TAP_TAPCELL_ROW_11_76
*554 TAP_TAPCELL_ROW_12_77
*555 TAP_TAPCELL_ROW_12_78
*556 TAP_TAPCELL_ROW_12_79
*557 TAP_TAPCELL_ROW_12_80
*558 TAP_TAPCELL_ROW_13_81
*559 TAP_TAPCELL_ROW_13_82
*560 TAP_TAPCELL_ROW_13_83
*561 TAP_TAPCELL_ROW_14_84
*562 TAP_TAPCELL_ROW_14_85
*563 TAP_TAPCELL_ROW_14_86
*564 TAP_TAPCELL_ROW_14_87
*565 TAP_TAPCELL_ROW_15_88
*566 TAP_TAPCELL_ROW_15_89
*567 TAP_TAPCELL_ROW_15_90
*568 TAP_TAPCELL_ROW_15_91
*569 TAP_TAPCELL_ROW_15_92
*570 TAP_TAPCELL_ROW_15_93
*571 TAP_TAPCELL_ROW_15_94
*572 TAP_TAPCELL_ROW_1_39
*573 TAP_TAPCELL_ROW_1_40
*574 TAP_TAPCELL_ROW_1_41
*575 TAP_TAPCELL_ROW_2_42
*576 TAP_TAPCELL_ROW_2_43
*577 TAP_TAPCELL_ROW_2_44
*578 TAP_TAPCELL_ROW_2_45
*579 TAP_TAPCELL_ROW_3_46
*580 TAP_TAPCELL_ROW_3_47
*581 TAP_TAPCELL_ROW_3_48
*582 TAP_TAPCELL_ROW_4_49
*583 TAP_TAPCELL_ROW_4_50
*584 TAP_TAPCELL_ROW_4_51
*585 TAP_TAPCELL_ROW_4_52
*586 TAP_TAPCELL_ROW_5_53
*587 TAP_TAPCELL_ROW_5_54
*588 TAP_TAPCELL_ROW_5_55
*589 TAP_TAPCELL_ROW_6_56
*590 TAP_TAPCELL_ROW_6_57
*591 TAP_TAPCELL_ROW_6_58
*592 TAP_TAPCELL_ROW_6_59
*593 TAP_TAPCELL_ROW_7_60
*594 TAP_TAPCELL_ROW_7_61
*595 TAP_TAPCELL_ROW_7_62
*596 TAP_TAPCELL_ROW_8_63
*597 TAP_TAPCELL_ROW_8_64
*598 TAP_TAPCELL_ROW_8_65
*599 TAP_TAPCELL_ROW_8_66
*600 TAP_TAPCELL_ROW_9_67
*601 TAP_TAPCELL_ROW_9_68
*602 TAP_TAPCELL_ROW_9_69
*603 _00_
*604 _01_
*605 _02_
*606 _03_
*607 _04_
*608 _05_
*609 _06_
*610 _07_
*611 _08_
*612 _09_
*613 _10_
*614 _11_
*615 _12_
*616 _13_
*617 _14_
*618 _15_
*619 _16_
*620 _17_
*621 _18_
*622 _19_
*623 _20_
*624 _21_
*625 _22_
*626 _23_
*627 _24_
*628 _25_
*629 _26_
*630 _27_
*631 _28_
*632 _29_
*633 _30_
*634 _31_
*635 _32_
*636 _33_
*637 _34_
*638 _35_
*639 _36_
*640 _37_
*641 _38_
*642 _39_
*643 _40_
*644 _41_
*645 _42_
*646 _43_
*647 _44_
*648 _45_
*649 _46_
*650 _47_
*651 _48_
*652 _49_
*653 _50_
*654 _51_
*655 _52_
*656 _53_
*657 _54_
*658 _55_
*659 _56_
*660 _57_
*661 _58_
*662 _59_
*663 _60_
*664 _61_
*665 _62_
*666 _63_
*667 _64_
*668 _65_
*669 _66_
*670 _67_
*671 _68_
*672 _69_
*673 _70_
*674 _71_
*675 _72_
*676 _73_
*677 _74_
*678 _75_
*679 _76_
*680 _77_
*681 _78_
*682 _79_
*683 _80_
*684 _81_
*685 _82_
*686 _83_
*687 _84_
*688 _85_
*689 _86_
*690 _87_
*691 _88_
*692 output1
*693 output10
*694 output11
*695 output12
*696 output13
*697 output14
*698 output15
*699 output16
*700 output17
*701 output18
*702 output19
*703 output2
*704 output20
*705 output21
*706 output22
*707 output23
*708 output24
*709 output25
*710 output26
*711 output27
*712 output28
*713 output29
*714 output3
*715 output30
*716 output31
*717 output32
*718 output33
*719 output34
*720 output35
*721 output36
*722 output37
*723 output38
*724 output39
*725 output4
*726 output40
*727 output41
*728 output42
*729 output43
*730 output44
*731 output45
*732 output46
*733 output47
*734 output48
*735 output49
*736 output5
*737 output50
*738 output51
*739 output52
*740 output53
*741 output54
*742 output55
*743 output56
*744 output57
*745 output58
*746 output59
*747 output6
*748 output60
*749 output61
*750 output62
*751 output63
*752 output64
*753 output65
*754 output66
*755 output67
*756 output68
*757 output69
*758 output7
*759 output70
*760 output71
*761 output72
*762 output73
*763 output74
*764 output75
*765 output76
*766 output77
*767 output78
*768 output79
*769 output8
*770 output80
*771 output81
*772 output82
*773 output83
*774 output84
*775 output85
*776 output86
*777 output87
*778 output88
*779 output89
*780 output9

*PORTS
FrameData[0] I
FrameData[10] I
FrameData[11] I
FrameData[12] I
FrameData[13] I
FrameData[14] I
FrameData[15] I
FrameData[16] I
FrameData[17] I
FrameData[18] I
FrameData[19] I
FrameData[1] I
FrameData[20] I
FrameData[21] I
FrameData[22] I
FrameData[23] I
FrameData[24] I
FrameData[25] I
FrameData[26] I
FrameData[27] I
FrameData[28] I
FrameData[29] I
FrameData[2] I
FrameData[30] I
FrameData[31] I
FrameData[3] I
FrameData[4] I
FrameData[5] I
FrameData[6] I
FrameData[7] I
FrameData[8] I
FrameData[9] I
FrameData_O[0] O
FrameData_O[10] O
FrameData_O[11] O
FrameData_O[12] O
FrameData_O[13] O
FrameData_O[14] O
FrameData_O[15] O
FrameData_O[16] O
FrameData_O[17] O
FrameData_O[18] O
FrameData_O[19] O
FrameData_O[1] O
FrameData_O[20] O
FrameData_O[21] O
FrameData_O[22] O
FrameData_O[23] O
FrameData_O[24] O
FrameData_O[25] O
FrameData_O[26] O
FrameData_O[27] O
FrameData_O[28] O
FrameData_O[29] O
FrameData_O[2] O
FrameData_O[30] O
FrameData_O[31] O
FrameData_O[3] O
FrameData_O[4] O
FrameData_O[5] O
FrameData_O[6] O
FrameData_O[7] O
FrameData_O[8] O
FrameData_O[9] O
FrameStrobe[0] I
FrameStrobe[10] I
FrameStrobe[11] I
FrameStrobe[12] I
FrameStrobe[13] I
FrameStrobe[14] I
FrameStrobe[15] I
FrameStrobe[16] I
FrameStrobe[17] I
FrameStrobe[18] I
FrameStrobe[19] I
FrameStrobe[1] I
FrameStrobe[2] I
FrameStrobe[3] I
FrameStrobe[4] I
FrameStrobe[5] I
FrameStrobe[6] I
FrameStrobe[7] I
FrameStrobe[8] I
FrameStrobe[9] I
FrameStrobe_O[0] O
FrameStrobe_O[10] O
FrameStrobe_O[11] O
FrameStrobe_O[12] O
FrameStrobe_O[13] O
FrameStrobe_O[14] O
FrameStrobe_O[15] O
FrameStrobe_O[16] O
FrameStrobe_O[17] O
FrameStrobe_O[18] O
FrameStrobe_O[19] O
FrameStrobe_O[1] O
FrameStrobe_O[2] O
FrameStrobe_O[3] O
FrameStrobe_O[4] O
FrameStrobe_O[5] O
FrameStrobe_O[6] O
FrameStrobe_O[7] O
FrameStrobe_O[8] O
FrameStrobe_O[9] O
N1BEG[0] O
N1BEG[1] O
N1BEG[2] O
N1BEG[3] O
N2BEG[0] O
N2BEG[1] O
N2BEG[2] O
N2BEG[3] O
N2BEG[4] O
N2BEG[5] O
N2BEG[6] O
N2BEG[7] O
N2BEGb[0] O
N2BEGb[1] O
N2BEGb[2] O
N2BEGb[3] O
N2BEGb[4] O
N2BEGb[5] O
N2BEGb[6] O
N2BEGb[7] O
N4BEG[0] O
N4BEG[10] O
N4BEG[11] O
N4BEG[12] O
N4BEG[13] O
N4BEG[14] O
N4BEG[15] O
N4BEG[1] O
N4BEG[2] O
N4BEG[3] O
N4BEG[4] O
N4BEG[5] O
N4BEG[6] O
N4BEG[7] O
N4BEG[8] O
N4BEG[9] O
S1END[0] I
S1END[1] I
S1END[2] I
S1END[3] I
S2END[0] I
S2END[1] I
S2END[2] I
S2END[3] I
S2END[4] I
S2END[5] I
S2END[6] I
S2END[7] I
S2MID[0] I
S2MID[1] I
S2MID[2] I
S2MID[3] I
S2MID[4] I
S2MID[5] I
S2MID[6] I
S2MID[7] I
S4END[0] I
S4END[10] I
S4END[11] I
S4END[12] I
S4END[13] I
S4END[14] I
S4END[15] I
S4END[1] I
S4END[2] I
S4END[3] I
S4END[4] I
S4END[5] I
S4END[6] I
S4END[7] I
S4END[8] I
S4END[9] I
UserCLK I
UserCLKo O

*D_NET *1 0.0145672
*CONN
*P FrameData[0] I
*I *603:I I *D gf180mcu_fd_sc_mcu7t5v0__buf_2
*CAP
1 FrameData[0] 0.00110558
2 *603:I 0.00110558
3 *603:I *604:I 0.00659949
4 *603:I *637:I 0.0034335
5 *603:I *643:I 0.00106503
6 *603:I *691:I 0.00125799
*RES
1 FrameData[0] *603:I 39.524 
*END

*D_NET *2 0.0090538
*CONN
*P FrameData[10] I
*I *613:I I *D gf180mcu_fd_sc_mcu7t5v0__buf_2
*CAP
1 FrameData[10] 0.00163414
2 *613:I 0.00163414
3 *613:I *612:I 0.00197757
4 *613:I *614:I 6.52263e-05
5 *613:I *628:I 0.000125578
6 *613:I *716:I 0.000115061
7 *613:I *24:15 0.00310742
8 *613:I *224:16 0.000394679
9 *613:I *226:14 0
*RES
1 FrameData[10] *613:I 39.108 
*END

*D_NET *3 0.0174224
*CONN
*P FrameData[11] I
*I *614:I I *D gf180mcu_fd_sc_mcu7t5v0__buf_2
*CAP
1 FrameData[11] 0.000844999
2 *614:I 0.000844999
3 *614:I *615:I 0.0028424
4 *614:I *703:I 0.00052233
5 *614:I *725:I 8.44565e-06
6 *614:I *736:I 0.000341082
7 *614:I *24:15 0.0119207
8 *614:I *226:14 3.22108e-05
9 *613:I *614:I 6.52263e-05
*RES
1 FrameData[11] *614:I 40.564 
*END

*D_NET *4 0.0109276
*CONN
*P FrameData[12] I
*I *615:I I *D gf180mcu_fd_sc_mcu7t5v0__buf_2
*CAP
1 FrameData[12] 0.00223461
2 *615:I 0.00223461
3 *615:I *616:I 0.00169543
4 *615:I *627:I 4.70047e-05
5 *615:I *725:I 9.57754e-05
6 *615:I *736:I 0.00135462
7 *615:I *758:I 0.000230273
8 *615:I *226:14 0.000192882
9 *614:I *615:I 0.0028424
*RES
1 FrameData[12] *615:I 43.268 
*END

*D_NET *5 0.0138862
*CONN
*P FrameData[13] I
*I *616:I I *D gf180mcu_fd_sc_mcu7t5v0__buf_2
*CAP
1 FrameData[13] 0.00139548
2 *616:I 0.00139548
3 *616:I *617:I 3.20343e-05
4 *616:I *627:I 0.00898436
5 *616:I *758:I 0
6 *616:I *10:19 0.000243466
7 *616:I *16:21 3.4596e-05
8 *616:I *20:23 0.000105316
9 *616:I *224:16 0
10 *616:I *227:16 0
11 *615:I *616:I 0.00169543
*RES
1 FrameData[13] *616:I 37.132 
*END

*D_NET *6 0.0185541
*CONN
*P FrameData[14] I
*I *617:I I *D gf180mcu_fd_sc_mcu7t5v0__buf_2
*CAP
1 FrameData[14] 0.000553651
2 *617:I 0.000553651
3 *617:I *618:I 0.00221351
4 *617:I *699:I 2.04597e-06
5 *617:I *770:I 0.00502079
6 *617:I *20:23 0.0101785
7 *616:I *617:I 3.20343e-05
*RES
1 FrameData[14] *617:I 36.612 
*END

*D_NET *7 0.0174299
*CONN
*P FrameData[15] I
*I *618:I I *D gf180mcu_fd_sc_mcu7t5v0__buf_2
*CAP
1 FrameData[15] 0.00086244
2 *618:I 0.00086244
3 *618:I *619:I 0.00821493
4 *618:I *699:I 4.04798e-05
5 *618:I *770:I 0.00523612
6 *617:I *618:I 0.00221351
*RES
1 FrameData[15] *618:I 37.236 
*END

*D_NET *8 0.0191241
*CONN
*P FrameData[16] I
*I *619:I I *D gf180mcu_fd_sc_mcu7t5v0__buf_2
*CAP
1 FrameData[16] 0.00123266
2 *619:I 0.00123266
3 *619:I *620:I 8.19382e-05
4 *619:I *621:I 2.47364e-05
5 *619:I *656:I 4.13126e-05
6 *619:I *685:I 0.000776598
7 *619:I *761:I 0.00159638
8 *619:I *770:I 0.000281104
9 *619:I *18:19 0.00285584
10 *619:I *224:16 0.000239905
11 *619:I *227:16 0.00163583
12 *619:I *259:14 0.000910199
13 *618:I *619:I 0.00821493
*RES
1 FrameData[16] *619:I 41.604 
*END

*D_NET *9 0.0118175
*CONN
*P FrameData[17] I
*I *620:I I *D gf180mcu_fd_sc_mcu7t5v0__buf_2
*CAP
1 FrameData[17] 0.00195332
2 *620:I 0.00195332
3 *620:I *624:I 0
4 *620:I *655:I 4.83728e-05
5 *620:I *656:I 0.000198672
6 *620:I *657:I 0.00268338
7 *620:I *664:I 3.20057e-05
8 *620:I *699:I 0.00096471
9 *620:I *735:I 0.000100328
10 *620:I *740:I 4.15942e-05
11 *620:I *769:I 4.20348e-05
12 *620:I *780:I 5.45754e-05
13 *620:I *10:19 0.000162718
14 *620:I *11:25 0
15 *620:I *15:15 0.00209236
16 *620:I *18:19 0.00112981
17 *620:I *187:18 0.00021758
18 *620:I *259:14 6.07595e-05
19 *619:I *620:I 8.19382e-05
*RES
1 FrameData[17] *620:I 41.604 
*END

*D_NET *10 0.0223023
*CONN
*P FrameData[18] I
*I *621:I I *D gf180mcu_fd_sc_mcu7t5v0__buf_2
*CAP
1 FrameData[18] 0.00158482
2 *621:I 0.00100743
3 *10:19 0.00259225
4 *621:I *623:I 0.000158673
5 *621:I *660:I 0.000225808
6 *621:I *662:I 0.00150768
7 *621:I *664:I 4.13214e-05
8 *621:I *697:I 5.63044e-06
9 *621:I *699:I 0.000880134
10 *621:I *755:I 9.33182e-05
11 *621:I *758:I 0.000738674
12 *621:I *224:16 7.58478e-05
13 *621:I *259:14 4.80128e-05
14 *10:19 *627:I 0.00476821
15 *10:19 *11:25 0.000162718
16 *10:19 *16:21 0.00443907
17 *10:19 *18:19 5.73478e-05
18 *10:19 *19:15 0.000170941
19 *10:19 *20:23 0.00331353
20 *10:19 *24:11 0
21 *616:I *10:19 0.000243466
22 *619:I *621:I 2.47364e-05
23 *620:I *10:19 0.000162718
*RES
1 FrameData[18] *10:19 46 
2 *10:19 *621:I 14.588 
*END

*D_NET *11 0.0192128
*CONN
*P FrameData[19] I
*I *622:I I *D gf180mcu_fd_sc_mcu7t5v0__buf_2
*CAP
1 FrameData[19] 0.00202732
2 *622:I 0
3 *11:25 0.00202732
4 *11:25 *623:I 0.00376698
5 *11:25 *624:I 0.0045469
6 *11:25 *660:I 0.000800448
7 *11:25 *663:I 3.56622e-06
8 *11:25 *664:I 2.47495e-05
9 *11:25 *666:I 3.22108e-05
10 *11:25 *740:I 0.000444671
11 *11:25 *743:I 0.000553911
12 *11:25 *744:I 7.47302e-05
13 *11:25 *749:I 0.00238338
14 *11:25 *752:I 0.000489277
15 *11:25 *754:I 2.01852e-05
16 *11:25 *762:I 0.000292868
17 *11:25 *763:I 0.000751363
18 *11:25 *776:I 0.000790019
19 *11:25 *185:18 2.01852e-05
20 *620:I *11:25 0
21 *10:19 *11:25 0.000162718
*RES
1 FrameData[19] *11:25 48.184 
2 *11:25 *622:I 4.5 
*END

*D_NET *12 0.0117337
*CONN
*P FrameData[1] I
*I *604:I I *D gf180mcu_fd_sc_mcu7t5v0__buf_2
*CAP
1 FrameData[1] 0.00118286
2 *604:I 0.00118286
3 *604:I *605:I 0.00128723
4 *604:I *637:I 0.000185959
5 *604:I *643:I 0
6 *604:I *79:15 0.00129534
7 *603:I *604:I 0.00659949
*RES
1 FrameData[1] *604:I 38.068 
*END

*D_NET *13 0.0176748
*CONN
*P FrameData[20] I
*I *623:I I *D gf180mcu_fd_sc_mcu7t5v0__buf_2
*CAP
1 FrameData[20] 0.00155702
2 *623:I 0.00155702
3 *623:I *624:I 0.00202722
4 *623:I *660:I 3.4596e-05
5 *623:I *663:I 0.000137129
6 *623:I *743:I 0.000988649
7 *623:I *745:I 0.000592983
8 *623:I *755:I 8.17526e-05
9 *623:I *762:I 0.00268346
10 *623:I *763:I 0.00237286
11 *623:I *15:15 0
12 *623:I *260:20 0.00171642
13 *621:I *623:I 0.000158673
14 *11:25 *623:I 0.00376698
*RES
1 FrameData[20] *623:I 49.356 
*END

*D_NET *14 0.0153797
*CONN
*P FrameData[21] I
*I *624:I I *D gf180mcu_fd_sc_mcu7t5v0__buf_2
*CAP
1 FrameData[21] 0.00175749
2 *624:I 0.00175749
3 *624:I *664:I 0.000459153
4 *624:I *742:I 3.58431e-05
5 *624:I *743:I 0.0001154
6 *624:I *15:15 0.000424564
7 *624:I *260:20 0.00425569
8 *620:I *624:I 0
9 *623:I *624:I 0.00202722
10 *11:25 *624:I 0.0045469
*RES
1 FrameData[21] *624:I 47.796 
*END

*D_NET *15 0.0189251
*CONN
*P FrameData[22] I
*I *625:I I *D gf180mcu_fd_sc_mcu7t5v0__buf_2
*CAP
1 FrameData[22] 0.0016455
2 *625:I 0
3 *15:15 0.0016455
4 *15:15 *656:I 0.00410204
5 *15:15 *685:I 0.00048811
6 *15:15 *699:I 0.000427061
7 *15:15 *742:I 0.00053145
8 *15:15 *745:I 0.000259031
9 *15:15 *749:I 0.00016681
10 *15:15 *754:I 8.47589e-05
11 *15:15 *763:I 0.000281327
12 *15:15 *16:21 0.00663448
13 *15:15 *145:27 0.000142059
14 *620:I *15:15 0.00209236
15 *623:I *15:15 0
16 *624:I *15:15 0.000424564
*RES
1 FrameData[22] *15:15 47.248 
2 *15:15 *625:I 4.5 
*END

*D_NET *16 0.0220695
*CONN
*P FrameData[23] I
*I *626:I I *D gf180mcu_fd_sc_mcu7t5v0__buf_2
*CAP
1 FrameData[23] 0.00241423
2 *626:I 0
3 *16:21 0.00241423
4 *16:21 N2BEGb[2] 0.000633391
5 *16:21 *627:I 0.00444788
6 *16:21 *658:I 0.000209505
7 *16:21 *699:I 5.36452e-06
8 *16:21 *744:I 6.1672e-05
9 *16:21 *751:I 0.00049983
10 *16:21 *754:I 5.65788e-06
11 *16:21 *758:I 0
12 *16:21 *17:11 0.000204969
13 *16:21 *145:27 6.46655e-05
14 *16:21 *260:20 0
15 *616:I *16:21 3.4596e-05
16 *10:19 *16:21 0.00443907
17 *15:15 *16:21 0.00663448
*RES
1 FrameData[23] *16:21 49.224 
2 *16:21 *626:I 4.5 
*END

*D_NET *17 0.0261599
*CONN
*P FrameData[24] I
*I *627:I I *D gf180mcu_fd_sc_mcu7t5v0__buf_2
*CAP
1 FrameData[24] 0.00143905
2 *627:I 0.000506936
3 *17:11 0.00194599
4 *627:I *702:I 0.000479251
5 *627:I *714:I 4.67771e-06
6 *627:I *725:I 6.19376e-05
7 *627:I *737:I 0.000835866
8 *627:I *758:I 0.000755698
9 *627:I *20:23 0.000199635
10 *17:11 *18:19 8.37916e-05
11 *17:11 *19:15 0.000702226
12 *17:11 *21:11 0.000692393
13 *615:I *627:I 4.70047e-05
14 *616:I *627:I 0.00898436
15 *10:19 *627:I 0.00476821
16 *16:21 *627:I 0.00444788
17 *16:21 *17:11 0.000204969
*RES
1 FrameData[24] *17:11 22.052 
2 *17:11 *627:I 39.368 
*END

*D_NET *18 0.0222096
*CONN
*P FrameData[25] I
*I *628:I I *D gf180mcu_fd_sc_mcu7t5v0__buf_2
*CAP
1 FrameData[25] 0.00266592
2 *628:I 0.00026605
3 *18:19 0.00293197
4 *628:I *612:I 0.00490069
5 *628:I *629:I 0.00524201
6 *628:I *716:I 0.0001975
7 *628:I *19:15 0.00052867
8 *628:I *224:16 3.60303e-05
9 *628:I *226:14 0
10 *18:19 *770:I 0
11 *18:19 *19:15 8.37916e-05
12 *18:19 *24:11 0.00110458
13 *613:I *628:I 0.000125578
14 *619:I *18:19 0.00285584
15 *620:I *18:19 0.00112981
16 *10:19 *18:19 5.73478e-05
17 *17:11 *18:19 8.37916e-05
*RES
1 FrameData[25] *18:19 44.364 
2 *18:19 *628:I 26.056 
*END

*D_NET *19 0.0242323
*CONN
*P FrameData[26] I
*I *629:I I *D gf180mcu_fd_sc_mcu7t5v0__buf_2
*CAP
1 FrameData[26] 0.00296783
2 *629:I 0.000598814
3 *19:15 0.00356664
4 *629:I *611:I 0.0018477
5 *629:I *702:I 4.47776e-05
6 *629:I *712:I 1.19584e-05
7 *629:I *716:I 0.000254295
8 *629:I *739:I 0
9 *629:I *206:16 0.00232752
10 *629:I *226:14 1.73677e-05
11 *19:15 *611:I 0.0047988
12 *19:15 *612:I 0.000939838
13 *19:15 *20:15 3.17882e-05
14 *19:15 *21:11 9.72892e-05
15 *628:I *629:I 0.00524201
16 *628:I *19:15 0.00052867
17 *10:19 *19:15 0.000170941
18 *17:11 *19:15 0.000702226
19 *18:19 *19:15 8.37916e-05
*RES
1 FrameData[26] *19:15 39.836 
2 *19:15 *629:I 27.824 
*END

*D_NET *20 0.0335943
*CONN
*P FrameData[27] I
*I *630:I I *D gf180mcu_fd_sc_mcu7t5v0__buf_2
*CAP
1 FrameData[27] 0.000469667
2 *630:I 0.000279855
3 *20:23 0.00171976
4 *20:15 0.00190957
5 *630:I *706:I 0.00112826
6 *630:I *780:I 3.41371e-05
7 *630:I *79:37 0.000703657
8 *630:I *260:20 0.00330461
9 *20:15 *21:11 3.17882e-05
10 *20:15 *22:11 0.00326987
11 *20:15 *24:11 0.00236143
12 *20:23 *685:I 1.46269e-05
13 *20:23 *700:I 0.00109805
14 *20:23 *737:I 0.000339147
15 *20:23 *739:I 0.000173451
16 *20:23 *747:I 0.00251637
17 *20:23 *770:I 0.00016407
18 *20:23 *79:15 0.000247274
19 *616:I *20:23 0.000105316
20 *617:I *20:23 0.0101785
21 *627:I *20:23 0.000199635
22 *10:19 *20:23 0.00331353
23 *19:15 *20:15 3.17882e-05
*RES
1 FrameData[27] *20:15 20.804 
2 *20:15 *20:23 46.856 
3 *20:23 *630:I 17.632 
*END

*D_NET *21 0.0327689
*CONN
*P FrameData[28] I
*I *631:I I *D gf180mcu_fd_sc_mcu7t5v0__buf_2
*CAP
1 FrameData[28] 0.0030743
2 *631:I 0.00170578
3 *21:15 0.0020844
4 *21:11 0.00345292
5 *631:I *683:I 0.000550177
6 *631:I *718:I 0.000847152
7 *631:I *730:I 0.000433244
8 *631:I *775:I 0.000477898
9 *631:I *227:16 0.000827635
10 *21:11 N2BEG[0] 3.41668e-05
11 *21:11 *640:I 0
12 *21:11 *744:I 0.000535859
13 *21:11 *22:11 2.34364e-05
14 *21:11 *24:11 0
15 *21:15 *611:I 0.0089126
16 *21:15 *711:I 0.00371804
17 *21:15 *22:15 0.0037567
18 *21:15 *206:16 0.00151314
19 *17:11 *21:11 0.000692393
20 *19:15 *21:11 9.72892e-05
21 *20:15 *21:11 3.17882e-05
*RES
1 FrameData[28] *21:11 30.58 
2 *21:11 *21:15 36.22 
3 *21:15 *631:I 19.164 
*END

*D_NET *22 0.0393562
*CONN
*P FrameData[29] I
*I *632:I I *D gf180mcu_fd_sc_mcu7t5v0__buf_2
*CAP
1 FrameData[29] 0.000705354
2 *632:I 0.000841726
3 *22:15 0.00178202
4 *22:11 0.00164565
5 *632:I *633:I 0.00399885
6 *632:I *677:I 6.96851e-05
7 *632:I *678:I 0.000467251
8 *632:I *679:I 9.07895e-05
9 *632:I *730:I 4.38114e-05
10 *632:I *779:I 0.00461337
11 *22:11 *24:11 0.000439085
12 *22:11 *25:19 0.0068635
13 *22:15 *610:I 0.00245212
14 *22:15 *611:I 0.000485966
15 *22:15 *635:I 0.00308811
16 *22:15 *692:I 0.000269741
17 *22:15 *711:I 0.00444917
18 *20:15 *22:11 0.00326987
19 *21:11 *22:11 2.34364e-05
20 *21:15 *22:15 0.0037567
*RES
1 FrameData[29] *22:11 27.668 
2 *22:11 *22:15 42.252 
3 *22:15 *632:I 19.58 
*END

*D_NET *23 0.0120198
*CONN
*P FrameData[2] I
*I *605:I I *D gf180mcu_fd_sc_mcu7t5v0__buf_2
*CAP
1 FrameData[2] 0.00126809
2 *605:I 0.00126809
3 *605:I *606:I 0.000795509
4 *605:I *640:I 0.00136091
5 *605:I *695:I 0.00020053
6 *605:I *79:15 0.00517965
7 *605:I *224:16 0.00012667
8 *605:I *226:14 0.000533118
9 *604:I *605:I 0.00128723
*RES
1 FrameData[2] *605:I 39.212 
*END

*D_NET *24 0.0339394
*CONN
*P FrameData[30] I
*I *633:I I *D gf180mcu_fd_sc_mcu7t5v0__buf_2
*CAP
1 FrameData[30] 0.00132855
2 *633:I 0.00130441
3 *24:15 0.0023464
4 *24:11 0.00237054
5 *633:I UserCLKo 5.77431e-06
6 *633:I *679:I 0.000398811
7 *633:I *680:I 9.53391e-05
8 *633:I *704:I 3.50983e-05
9 *633:I *705:I 0.000152372
10 *633:I *706:I 2.90512e-05
11 *633:I *730:I 0.000216249
12 *633:I *772:I 0.000712351
13 *633:I *187:18 0.000106926
14 *633:I *251:16 0.000139406
15 *24:11 *25:19 6.79678e-05
16 *24:15 *701:I 0.000587309
17 *24:15 *703:I 0.00107562
18 *24:15 *716:I 3.52062e-05
19 *613:I *24:15 0.00310742
20 *614:I *24:15 0.0119207
21 *632:I *633:I 0.00399885
22 *10:19 *24:11 0
23 *18:19 *24:11 0.00110458
24 *20:15 *24:11 0.00236143
25 *21:11 *24:11 0
26 *22:11 *24:11 0.000439085
*RES
1 FrameData[30] *24:11 26.212 
2 *24:11 *24:15 41.42 
3 *24:15 *633:I 27.748 
*END

*D_NET *25 0.0494501
*CONN
*P FrameData[31] I
*I *634:I I *D gf180mcu_fd_sc_mcu7t5v0__buf_2
*CAP
1 FrameData[31] 0.00243728
2 *634:I 0.00214616
3 *25:25 0.00363667
4 *25:19 0.0039278
5 *634:I FrameData_O[10] 5.61634e-05
6 *634:I FrameData_O[12] 0.000207716
7 *634:I FrameData_O[13] 0.000509988
8 *634:I FrameData_O[15] 0.000226817
9 *634:I FrameData_O[16] 7.02352e-05
10 *634:I FrameData_O[18] 0.000169099
11 *634:I FrameData_O[19] 0.000267969
12 *634:I FrameData_O[20] 7.75896e-05
13 *634:I FrameData_O[21] 0.000734788
14 *634:I FrameData_O[22] 0.000102068
15 *634:I FrameData_O[6] 9.22469e-05
16 *634:I FrameData_O[7] 0.000808138
17 *634:I FrameData_O[9] 0.000239569
18 *634:I *654:I 0
19 *634:I *696:I 7.27258e-05
20 *634:I *697:I 2.2517e-05
21 *634:I *698:I 6.49637e-06
22 *634:I *703:I 0.00012827
23 *634:I *709:I 1.78817e-06
24 *634:I *713:I 3.61799e-05
25 *634:I *715:I 5.12872e-06
26 *634:I *728:I 0
27 *25:19 *606:I 0.00117825
28 *25:19 *607:I 0.00140397
29 *25:25 FrameData_O[1] 0
30 *25:25 FrameData_O[2] 0.000709725