* NGSPICE file created from W_IO4.ext - technology: gf180mcuD

* Black-box entry subcircuit for gf180mcu_fd_sc_mcu7t5v0__filltie abstract view
.subckt gf180mcu_fd_sc_mcu7t5v0__filltie VDD VSS
.ends

* Black-box entry subcircuit for gf180mcu_fd_sc_mcu7t5v0__buf_2 abstract view
.subckt gf180mcu_fd_sc_mcu7t5v0__buf_2 I Z VDD VNW VPW VSS
.ends

* Black-box entry subcircuit for gf180mcu_fd_sc_mcu7t5v0__fill_1 abstract view
.subckt gf180mcu_fd_sc_mcu7t5v0__fill_1 VDD VNW VPW VSS
.ends

* Black-box entry subcircuit for gf180mcu_fd_sc_mcu7t5v0__endcap abstract view
.subckt gf180mcu_fd_sc_mcu7t5v0__endcap VDD VSS
.ends

* Black-box entry subcircuit for gf180mcu_fd_sc_mcu7t5v0__latq_1 abstract view
.subckt gf180mcu_fd_sc_mcu7t5v0__latq_1 D E Q VDD VNW VPW VSS
.ends

* Black-box entry subcircuit for gf180mcu_fd_sc_mcu7t5v0__fill_2 abstract view
.subckt gf180mcu_fd_sc_mcu7t5v0__fill_2 VDD VNW VPW VSS
.ends

* Black-box entry subcircuit for gf180mcu_fd_sc_mcu7t5v0__fillcap_4 abstract view
.subckt gf180mcu_fd_sc_mcu7t5v0__fillcap_4 VDD VNW VPW VSS
.ends

* Black-box entry subcircuit for gf180mcu_fd_sc_mcu7t5v0__fillcap_8 abstract view
.subckt gf180mcu_fd_sc_mcu7t5v0__fillcap_8 VDD VNW VPW VSS
.ends

* Black-box entry subcircuit for gf180mcu_fd_sc_mcu7t5v0__fillcap_64 abstract view
.subckt gf180mcu_fd_sc_mcu7t5v0__fillcap_64 VDD VNW VPW VSS
.ends

* Black-box entry subcircuit for gf180mcu_fd_sc_mcu7t5v0__mux4_1 abstract view
.subckt gf180mcu_fd_sc_mcu7t5v0__mux4_1 I0 I1 I2 I3 S0 S1 Z VDD VNW VPW VSS
.ends

* Black-box entry subcircuit for gf180mcu_fd_sc_mcu7t5v0__fillcap_16 abstract view
.subckt gf180mcu_fd_sc_mcu7t5v0__fillcap_16 VDD VNW VPW VSS
.ends

* Black-box entry subcircuit for gf180mcu_fd_sc_mcu7t5v0__aoi211_1 abstract view
.subckt gf180mcu_fd_sc_mcu7t5v0__aoi211_1 A1 A2 B C ZN VDD VNW VPW VSS
.ends

* Black-box entry subcircuit for gf180mcu_fd_sc_mcu7t5v0__buf_4 abstract view
.subckt gf180mcu_fd_sc_mcu7t5v0__buf_4 I Z VDD VNW VPW VSS
.ends

* Black-box entry subcircuit for gf180mcu_fd_sc_mcu7t5v0__nor2_1 abstract view
.subckt gf180mcu_fd_sc_mcu7t5v0__nor2_1 A1 A2 ZN VDD VNW VPW VSS
.ends

* Black-box entry subcircuit for gf180mcu_fd_sc_mcu7t5v0__fillcap_32 abstract view
.subckt gf180mcu_fd_sc_mcu7t5v0__fillcap_32 VDD VNW VPW VSS
.ends

* Black-box entry subcircuit for gf180mcu_fd_sc_mcu7t5v0__oai32_1 abstract view
.subckt gf180mcu_fd_sc_mcu7t5v0__oai32_1 A1 A2 A3 B1 B2 ZN VDD VNW VPW VSS
.ends

* Black-box entry subcircuit for gf180mcu_fd_sc_mcu7t5v0__nand3_1 abstract view
.subckt gf180mcu_fd_sc_mcu7t5v0__nand3_1 A1 A2 A3 ZN VDD VNW VPW VSS
.ends

* Black-box entry subcircuit for gf180mcu_fd_sc_mcu7t5v0__nand2_1 abstract view
.subckt gf180mcu_fd_sc_mcu7t5v0__nand2_1 A1 A2 ZN VDD VNW VPW VSS
.ends

* Black-box entry subcircuit for gf180mcu_fd_sc_mcu7t5v0__clkbuf_1 abstract view
.subckt gf180mcu_fd_sc_mcu7t5v0__clkbuf_1 I Z VDD VNW VPW VSS
.ends

* Black-box entry subcircuit for gf180mcu_fd_sc_mcu7t5v0__and3_1 abstract view
.subckt gf180mcu_fd_sc_mcu7t5v0__and3_1 A1 A2 A3 Z VDD VNW VPW VSS
.ends

* Black-box entry subcircuit for gf180mcu_fd_sc_mcu7t5v0__mux2_2 abstract view
.subckt gf180mcu_fd_sc_mcu7t5v0__mux2_2 I0 I1 S Z VDD VNW VPW VSS
.ends

* Black-box entry subcircuit for gf180mcu_fd_sc_mcu7t5v0__inv_1 abstract view
.subckt gf180mcu_fd_sc_mcu7t5v0__inv_1 I ZN VDD VNW VPW VSS
.ends

* Black-box entry subcircuit for gf180mcu_fd_sc_mcu7t5v0__clkbuf_16 abstract view
.subckt gf180mcu_fd_sc_mcu7t5v0__clkbuf_16 I Z VDD VNW VPW VSS
.ends

* Black-box entry subcircuit for gf180mcu_fd_sc_mcu7t5v0__oai21_1 abstract view
.subckt gf180mcu_fd_sc_mcu7t5v0__oai21_1 A1 A2 B ZN VDD VNW VPW VSS
.ends

* Black-box entry subcircuit for gf180mcu_fd_sc_mcu7t5v0__nor3_1 abstract view
.subckt gf180mcu_fd_sc_mcu7t5v0__nor3_1 A1 A2 A3 ZN VDD VNW VPW VSS
.ends

* Black-box entry subcircuit for gf180mcu_fd_sc_mcu7t5v0__dffq_4 abstract view
.subckt gf180mcu_fd_sc_mcu7t5v0__dffq_4 D CLK Q VDD VNW VPW VSS
.ends

* Black-box entry subcircuit for gf180mcu_fd_sc_mcu7t5v0__buf_1 abstract view
.subckt gf180mcu_fd_sc_mcu7t5v0__buf_1 I Z VDD VNW VPW VSS
.ends

* Black-box entry subcircuit for gf180mcu_fd_sc_mcu7t5v0__oai32_2 abstract view
.subckt gf180mcu_fd_sc_mcu7t5v0__oai32_2 A1 A2 A3 B1 B2 ZN VDD VNW VPW VSS
.ends

* Black-box entry subcircuit for gf180mcu_fd_sc_mcu7t5v0__clkinv_2 abstract view
.subckt gf180mcu_fd_sc_mcu7t5v0__clkinv_2 I ZN VDD VNW VPW VSS
.ends

.subckt W_IO4 A_I_top A_O_top A_T_top A_config_C_bit0 A_config_C_bit1 A_config_C_bit2
+ A_config_C_bit3 B_I_top B_O_top B_T_top B_config_C_bit0 B_config_C_bit1 B_config_C_bit2
+ B_config_C_bit3 C_I_top C_O_top C_T_top C_config_C_bit0 C_config_C_bit1 C_config_C_bit2
+ C_config_C_bit3 D_I_top D_O_top D_T_top D_config_C_bit0 D_config_C_bit1 D_config_C_bit2
+ D_config_C_bit3 E1BEG[0] E1BEG[1] E1BEG[2] E1BEG[3] E2BEG[0] E2BEG[1] E2BEG[2] E2BEG[3]
+ E2BEG[4] E2BEG[5] E2BEG[6] E2BEG[7] E2BEGb[0] E2BEGb[1] E2BEGb[2] E2BEGb[3] E2BEGb[4]
+ E2BEGb[5] E2BEGb[6] E2BEGb[7] E6BEG[0] E6BEG[10] E6BEG[11] E6BEG[1] E6BEG[2] E6BEG[3]
+ E6BEG[4] E6BEG[5] E6BEG[6] E6BEG[7] E6BEG[8] E6BEG[9] EE4BEG[0] EE4BEG[10] EE4BEG[11]
+ EE4BEG[12] EE4BEG[13] EE4BEG[14] EE4BEG[15] EE4BEG[1] EE4BEG[2] EE4BEG[3] EE4BEG[4]
+ EE4BEG[5] EE4BEG[6] EE4BEG[7] EE4BEG[8] EE4BEG[9] FrameData[0] FrameData[10] FrameData[11]
+ FrameData[12] FrameData[13] FrameData[14] FrameData[15] FrameData[16] FrameData[17]
+ FrameData[18] FrameData[19] FrameData[1] FrameData[20] FrameData[21] FrameData[22]
+ FrameData[23] FrameData[24] FrameData[25] FrameData[26] FrameData[27] FrameData[28]
+ FrameData[29] FrameData[2] FrameData[30] FrameData[31] FrameData[3] FrameData[4]
+ FrameData[5] FrameData[6] FrameData[7] FrameData[8] FrameData[9] FrameData_O[0]
+ FrameData_O[10] FrameData_O[11] FrameData_O[12] FrameData_O[13] FrameData_O[14]
+ FrameData_O[15] FrameData_O[16] FrameData_O[17] FrameData_O[18] FrameData_O[19]
+ FrameData_O[1] FrameData_O[20] FrameData_O[21] FrameData_O[22] FrameData_O[23] FrameData_O[24]
+ FrameData_O[25] FrameData_O[26] FrameData_O[27] FrameData_O[28] FrameData_O[29]
+ FrameData_O[2] FrameData_O[30] FrameData_O[31] FrameData_O[3] FrameData_O[4] FrameData_O[5]
+ FrameData_O[6] FrameData_O[7] FrameData_O[8] FrameData_O[9] FrameStrobe[0] FrameStrobe[10]
+ FrameStrobe[11] FrameStrobe[12] FrameStrobe[13] FrameStrobe[14] FrameStrobe[15]
+ FrameStrobe[16] FrameStrobe[17] FrameStrobe[18] FrameStrobe[19] FrameStrobe[1] FrameStrobe[2]
+ FrameStrobe[3] FrameStrobe[4] FrameStrobe[5] FrameStrobe[6] FrameStrobe[7] FrameStrobe[8]
+ FrameStrobe[9] FrameStrobe_O[0] FrameStrobe_O[10] FrameStrobe_O[11] FrameStrobe_O[12]
+ FrameStrobe_O[13] FrameStrobe_O[14] FrameStrobe_O[15] FrameStrobe_O[16] FrameStrobe_O[17]
+ FrameStrobe_O[18] FrameStrobe_O[19] FrameStrobe_O[1] FrameStrobe_O[2] FrameStrobe_O[3]
+ FrameStrobe_O[4] FrameStrobe_O[5] FrameStrobe_O[6] FrameStrobe_O[7] FrameStrobe_O[8]
+ FrameStrobe_O[9] UserCLK UserCLKo VDD VSS W1END[0] W1END[1] W1END[2] W1END[3] W2END[0]
+ W2END[1] W2END[2] W2END[3] W2END[4] W2END[5] W2END[6] W2END[7] W2MID[0] W2MID[1]
+ W2MID[2] W2MID[3] W2MID[4] W2MID[5] W2MID[6] W2MID[7] W6END[0] W6END[10] W6END[11]
+ W6END[1] W6END[2] W6END[3] W6END[4] W6END[5] W6END[6] W6END[7] W6END[8] W6END[9]
+ WW4END[0] WW4END[10] WW4END[11] WW4END[12] WW4END[13] WW4END[14] WW4END[15] WW4END[1]
+ WW4END[2] WW4END[3] WW4END[4] WW4END[5] WW4END[6] WW4END[7] WW4END[8] WW4END[9]
XTAP_TAPCELL_ROW_49_294 VDD VSS gf180mcu_fd_sc_mcu7t5v0__filltie
X_432_ FrameData[28] net111 VDD VDD VSS VSS gf180mcu_fd_sc_mcu7t5v0__buf_2
XFILLER_13_199 VDD VDD VSS VSS gf180mcu_fd_sc_mcu7t5v0__fill_1
X_363_ Inst_W_IO4_switch_matrix.E2BEG3 net32 VDD VDD VSS VSS gf180mcu_fd_sc_mcu7t5v0__buf_2
XPHY_EDGE_ROW_39_Left_110 VDD VSS gf180mcu_fd_sc_mcu7t5v0__endcap
X_294_ FrameData[6] net49 Inst_W_IO4_ConfigMem.Inst_frame1_bit6.Q VDD VDD VSS VSS
+ gf180mcu_fd_sc_mcu7t5v0__latq_1
XTAP_TAPCELL_ROW_8_170 VDD VSS gf180mcu_fd_sc_mcu7t5v0__filltie
XFILLER_36_225 VDD VDD VSS VSS gf180mcu_fd_sc_mcu7t5v0__fill_2
XTAP_TAPCELL_ROW_46_286 VDD VSS gf180mcu_fd_sc_mcu7t5v0__filltie
XFILLER_51_206 VDD VDD VSS VSS gf180mcu_fd_sc_mcu7t5v0__fillcap_4
XFILLER_47_29 VDD VDD VSS VSS gf180mcu_fd_sc_mcu7t5v0__fill_1
XFILLER_6_107 VDD VDD VSS VSS gf180mcu_fd_sc_mcu7t5v0__fillcap_8
XTAP_TAPCELL_ROW_5_162 VDD VSS gf180mcu_fd_sc_mcu7t5v0__filltie
XTAP_TAPCELL_ROW_28_231 VDD VSS gf180mcu_fd_sc_mcu7t5v0__filltie
XFILLER_37_84 VDD VDD VSS VSS gf180mcu_fd_sc_mcu7t5v0__fill_1
X_346_ FrameData[26] net52 Inst_W_IO4_ConfigMem.Inst_frame0_bit26.Q VDD VDD VSS VSS
+ gf180mcu_fd_sc_mcu7t5v0__latq_1
X_415_ FrameData[11] net93 VDD VDD VSS VSS gf180mcu_fd_sc_mcu7t5v0__buf_2
XFILLER_53_72 VDD VDD VSS VSS gf180mcu_fd_sc_mcu7t5v0__fillcap_64
X_277_ FrameData[21] net44 Inst_W_IO4_ConfigMem.Inst_frame2_bit21.Q VDD VDD VSS VSS
+ gf180mcu_fd_sc_mcu7t5v0__latq_1
XFILLER_24_239 VDD VDD VSS VSS gf180mcu_fd_sc_mcu7t5v0__fill_2
XTAP_TAPCELL_ROW_2_154 VDD VSS gf180mcu_fd_sc_mcu7t5v0__filltie
XFILLER_59_136 VDD VDD VSS VSS gf180mcu_fd_sc_mcu7t5v0__fillcap_4
X_200_ W2END[1] WW4END[1] WW4END[9] W6END[1] Inst_W_IO4_ConfigMem.Inst_frame2_bit8.Q
+ Inst_W_IO4_ConfigMem.Inst_frame2_bit9.Q Inst_W_IO4_switch_matrix.E2BEGb6 VDD VDD
+ VSS VSS gf180mcu_fd_sc_mcu7t5v0__mux4_1
XTAP_TAPCELL_ROW_25_223 VDD VSS gf180mcu_fd_sc_mcu7t5v0__filltie
XFILLER_30_209 VDD VDD VSS VSS gf180mcu_fd_sc_mcu7t5v0__fillcap_4
X_131_ W2END[4] W2END[5] W2END[6] W2END[7] Inst_W_IO4_ConfigMem.Inst_frame0_bit25.Q
+ Inst_W_IO4_ConfigMem.Inst_frame0_bit26.Q _042_ VDD VDD VSS VSS gf180mcu_fd_sc_mcu7t5v0__mux4_1
X_329_ FrameData[9] net53 Inst_W_IO4_ConfigMem.Inst_frame0_bit9.Q VDD VDD VSS VSS
+ gf180mcu_fd_sc_mcu7t5v0__latq_1
XPHY_EDGE_ROW_24_Left_95 VDD VSS gf180mcu_fd_sc_mcu7t5v0__endcap
XFILLER_43_2 VDD VDD VSS VSS gf180mcu_fd_sc_mcu7t5v0__fillcap_8
XFILLER_69_27 VDD VDD VSS VSS gf180mcu_fd_sc_mcu7t5v0__fillcap_16
X_114_ _003_ Inst_W_IO4_ConfigMem.Inst_frame0_bit23.Q Inst_W_IO4_ConfigMem.Inst_frame0_bit24.Q
+ _026_ _027_ VDD VDD VSS VSS gf180mcu_fd_sc_mcu7t5v0__aoi211_1
XFILLER_46_172 VDD VDD VSS VSS gf180mcu_fd_sc_mcu7t5v0__fill_2
XFILLER_61_142 VDD VDD VSS VSS gf180mcu_fd_sc_mcu7t5v0__fillcap_64
XFILLER_29_139 VDD VDD VSS VSS gf180mcu_fd_sc_mcu7t5v0__fill_1
XFILLER_43_142 VDD VDD VSS VSS gf180mcu_fd_sc_mcu7t5v0__fillcap_4
XFILLER_6_34 VDD VDD VSS VSS gf180mcu_fd_sc_mcu7t5v0__fill_1
XFILLER_61_72 VDD VDD VSS VSS gf180mcu_fd_sc_mcu7t5v0__fillcap_64
XFILLER_6_89 VDD VDD VSS VSS gf180mcu_fd_sc_mcu7t5v0__fillcap_4
XFILLER_19_194 VDD VDD VSS VSS gf180mcu_fd_sc_mcu7t5v0__fillcap_16
XFILLER_57_212 VDD VDD VSS VSS gf180mcu_fd_sc_mcu7t5v0__fill_1
XPHY_EDGE_ROW_11_Left_82 VDD VSS gf180mcu_fd_sc_mcu7t5v0__endcap
Xoutput7 net144 B_I_top VDD VDD VSS VSS gf180mcu_fd_sc_mcu7t5v0__buf_4
Xoutput20 net20 D_T_top VDD VDD VSS VSS gf180mcu_fd_sc_mcu7t5v0__buf_4
Xoutput31 net31 E2BEG[2] VDD VDD VSS VSS gf180mcu_fd_sc_mcu7t5v0__buf_4
Xoutput42 net60 E2BEGb[5] VDD VDD VSS VSS gf180mcu_fd_sc_mcu7t5v0__buf_4
Xoutput64 net82 EE4BEG[1] VDD VDD VSS VSS gf180mcu_fd_sc_mcu7t5v0__buf_4
Xoutput53 net71 E6BEG[6] VDD VDD VSS VSS gf180mcu_fd_sc_mcu7t5v0__buf_4
Xoutput75 net93 FrameData_O[11] VDD VDD VSS VSS gf180mcu_fd_sc_mcu7t5v0__buf_4
Xoutput86 net104 FrameData_O[21] VDD VDD VSS VSS gf180mcu_fd_sc_mcu7t5v0__buf_4
Xoutput97 net115 FrameData_O[31] VDD VDD VSS VSS gf180mcu_fd_sc_mcu7t5v0__buf_4
XFILLER_31_112 VDD VDD VSS VSS gf180mcu_fd_sc_mcu7t5v0__fillcap_8
XFILLER_39_212 VDD VDD VSS VSS gf180mcu_fd_sc_mcu7t5v0__fill_1
XTAP_TAPCELL_ROW_49_295 VDD VSS gf180mcu_fd_sc_mcu7t5v0__filltie
X_431_ FrameData[27] net110 VDD VDD VSS VSS gf180mcu_fd_sc_mcu7t5v0__buf_2
XFILLER_13_123 VDD VDD VSS VSS gf180mcu_fd_sc_mcu7t5v0__fillcap_4
X_362_ Inst_W_IO4_switch_matrix.E2BEG2 net31 VDD VDD VSS VSS gf180mcu_fd_sc_mcu7t5v0__buf_2
X_293_ FrameData[5] net49 Inst_W_IO4_ConfigMem.Inst_frame1_bit5.Q VDD VDD VSS VSS
+ gf180mcu_fd_sc_mcu7t5v0__latq_1
XTAP_TAPCELL_ROW_8_171 VDD VSS gf180mcu_fd_sc_mcu7t5v0__filltie
XFILLER_3_68 VDD VDD VSS VSS gf180mcu_fd_sc_mcu7t5v0__fill_2
XFILLER_12_33 VDD VDD VSS VSS gf180mcu_fd_sc_mcu7t5v0__fill_2
XTAP_TAPCELL_ROW_5_163 VDD VSS gf180mcu_fd_sc_mcu7t5v0__filltie
XTAP_TAPCELL_ROW_28_232 VDD VSS gf180mcu_fd_sc_mcu7t5v0__filltie
X_414_ FrameData[10] net92 VDD VDD VSS VSS gf180mcu_fd_sc_mcu7t5v0__buf_2
X_345_ FrameData[25] net52 Inst_W_IO4_ConfigMem.Inst_frame0_bit25.Q VDD VDD VSS VSS
+ gf180mcu_fd_sc_mcu7t5v0__latq_1
X_276_ FrameData[20] net44 Inst_W_IO4_ConfigMem.Inst_frame2_bit20.Q VDD VDD VSS VSS
+ gf180mcu_fd_sc_mcu7t5v0__latq_1
XPHY_EDGE_ROW_12_Right_12 VDD VSS gf180mcu_fd_sc_mcu7t5v0__endcap
XPHY_EDGE_ROW_58_Left_129 VDD VSS gf180mcu_fd_sc_mcu7t5v0__endcap
XPHY_EDGE_ROW_21_Right_21 VDD VSS gf180mcu_fd_sc_mcu7t5v0__endcap
XPHY_EDGE_ROW_67_Left_138 VDD VSS gf180mcu_fd_sc_mcu7t5v0__endcap
X_130_ Inst_W_IO4_ConfigMem.Inst_frame0_bit27.Q _040_ _041_ VDD VDD VSS VSS gf180mcu_fd_sc_mcu7t5v0__nor2_1
XFILLER_23_240 VDD VDD VSS VSS gf180mcu_fd_sc_mcu7t5v0__fill_1
XPHY_EDGE_ROW_30_Right_30 VDD VSS gf180mcu_fd_sc_mcu7t5v0__endcap
XFILLER_2_177 VDD VDD VSS VSS gf180mcu_fd_sc_mcu7t5v0__fillcap_64
XFILLER_0_36 VDD VDD VSS VSS gf180mcu_fd_sc_mcu7t5v0__fillcap_32
X_328_ FrameData[8] net52 Inst_W_IO4_ConfigMem.Inst_frame0_bit8.Q VDD VDD VSS VSS
+ gf180mcu_fd_sc_mcu7t5v0__latq_1
XFILLER_9_34 VDD VDD VSS VSS gf180mcu_fd_sc_mcu7t5v0__fill_2
X_259_ FrameData[3] net45 Inst_W_IO4_ConfigMem.Inst_frame2_bit3.Q VDD VDD VSS VSS
+ gf180mcu_fd_sc_mcu7t5v0__latq_1
XTAP_TAPCELL_ROW_54_308 VDD VSS gf180mcu_fd_sc_mcu7t5v0__filltie
XFILLER_56_107 VDD VDD VSS VSS gf180mcu_fd_sc_mcu7t5v0__fillcap_64
XFILLER_20_210 VDD VDD VSS VSS gf180mcu_fd_sc_mcu7t5v0__fillcap_16
XFILLER_7_236 VDD VDD VSS VSS gf180mcu_fd_sc_mcu7t5v0__fillcap_4
X_113_ W2MID[7] Inst_W_IO4_ConfigMem.Inst_frame0_bit23.Q _026_ VDD VDD VSS VSS gf180mcu_fd_sc_mcu7t5v0__nor2_1
XFILLER_38_107 VDD VDD VSS VSS gf180mcu_fd_sc_mcu7t5v0__fillcap_4
XFILLER_59_72 VDD VDD VSS VSS gf180mcu_fd_sc_mcu7t5v0__fillcap_64
XFILLER_29_129 VDD VDD VSS VSS gf180mcu_fd_sc_mcu7t5v0__fill_2
XFILLER_6_24 VDD VDD VSS VSS gf180mcu_fd_sc_mcu7t5v0__fillcap_8
XPHY_EDGE_ROW_6_Right_6 VDD VSS gf180mcu_fd_sc_mcu7t5v0__endcap
XFILLER_40_113 VDD VDD VSS VSS gf180mcu_fd_sc_mcu7t5v0__fill_1
Xoutput87 net105 FrameData_O[22] VDD VDD VSS VSS gf180mcu_fd_sc_mcu7t5v0__buf_4
Xoutput10 net10 B_config_C_bit1 VDD VDD VSS VSS gf180mcu_fd_sc_mcu7t5v0__buf_4
Xoutput8 net8 B_T_top VDD VDD VSS VSS gf180mcu_fd_sc_mcu7t5v0__buf_4
Xoutput21 net21 D_config_C_bit0 VDD VDD VSS VSS gf180mcu_fd_sc_mcu7t5v0__buf_4
Xoutput32 net32 E2BEG[3] VDD VDD VSS VSS gf180mcu_fd_sc_mcu7t5v0__buf_4
Xoutput65 net83 EE4BEG[2] VDD VDD VSS VSS gf180mcu_fd_sc_mcu7t5v0__buf_4
Xoutput43 net61 E2BEGb[6] VDD VDD VSS VSS gf180mcu_fd_sc_mcu7t5v0__buf_4
Xoutput54 net72 E6BEG[7] VDD VDD VSS VSS gf180mcu_fd_sc_mcu7t5v0__buf_4
Xoutput98 net116 FrameData_O[3] VDD VDD VSS VSS gf180mcu_fd_sc_mcu7t5v0__buf_4
Xoutput76 net94 FrameData_O[12] VDD VDD VSS VSS gf180mcu_fd_sc_mcu7t5v0__buf_4
XPHY_EDGE_ROW_59_Right_59 VDD VSS gf180mcu_fd_sc_mcu7t5v0__endcap
XPHY_EDGE_ROW_68_Right_68 VDD VSS gf180mcu_fd_sc_mcu7t5v0__endcap
XFILLER_26_10 VDD VDD VSS VSS gf180mcu_fd_sc_mcu7t5v0__fillcap_4
X_430_ FrameData[26] net109 VDD VDD VSS VSS gf180mcu_fd_sc_mcu7t5v0__buf_2
X_361_ Inst_W_IO4_switch_matrix.E2BEG1 net30 VDD VDD VSS VSS gf180mcu_fd_sc_mcu7t5v0__buf_2
X_292_ FrameData[4] net49 Inst_W_IO4_ConfigMem.Inst_frame1_bit4.Q VDD VDD VSS VSS
+ gf180mcu_fd_sc_mcu7t5v0__latq_1
XFILLER_67_72 VDD VDD VSS VSS gf180mcu_fd_sc_mcu7t5v0__fillcap_64
XTAP_TAPCELL_ROW_8_172 VDD VSS gf180mcu_fd_sc_mcu7t5v0__filltie
XFILLER_66_2 VDD VDD VSS VSS gf180mcu_fd_sc_mcu7t5v0__fillcap_32
XFILLER_27_205 VDD VDD VSS VSS gf180mcu_fd_sc_mcu7t5v0__fillcap_4
X_413_ FrameData[9] net122 VDD VDD VSS VSS gf180mcu_fd_sc_mcu7t5v0__buf_2
XFILLER_33_208 VDD VDD VSS VSS gf180mcu_fd_sc_mcu7t5v0__fill_2
X_344_ FrameData[24] net53 Inst_W_IO4_ConfigMem.Inst_frame0_bit24.Q VDD VDD VSS VSS
+ gf180mcu_fd_sc_mcu7t5v0__latq_1
X_275_ FrameData[19] net45 Inst_W_IO4_ConfigMem.Inst_frame2_bit19.Q VDD VDD VSS VSS
+ gf180mcu_fd_sc_mcu7t5v0__latq_1
XFILLER_5_142 VDD VDD VSS VSS gf180mcu_fd_sc_mcu7t5v0__fillcap_64
XFILLER_67_182 VDD VDD VSS VSS gf180mcu_fd_sc_mcu7t5v0__fillcap_4
XFILLER_15_208 VDD VDD VSS VSS gf180mcu_fd_sc_mcu7t5v0__fill_2
XTAP_TAPCELL_ROW_57_317 VDD VSS gf180mcu_fd_sc_mcu7t5v0__filltie
XFILLER_2_101 VDD VDD VSS VSS gf180mcu_fd_sc_mcu7t5v0__fillcap_4
XFILLER_48_63 VDD VDD VSS VSS gf180mcu_fd_sc_mcu7t5v0__fill_1
XFILLER_48_96 VDD VDD VSS VSS gf180mcu_fd_sc_mcu7t5v0__fill_1
XFILLER_58_171 VDD VDD VSS VSS gf180mcu_fd_sc_mcu7t5v0__fillcap_4
XTAP_TAPCELL_ROW_31_239 VDD VSS gf180mcu_fd_sc_mcu7t5v0__filltie
X_327_ FrameData[7] net54 Inst_W_IO4_ConfigMem.Inst_frame0_bit7.Q VDD VDD VSS VSS
+ gf180mcu_fd_sc_mcu7t5v0__latq_1
X_189_ W6END[3] W6END[7] W6END[5] D_O_top Inst_W_IO4_ConfigMem.Inst_frame2_bit31.Q
+ Inst_W_IO4_ConfigMem.Inst_frame2_bit30.Q Inst_W_IO4_switch_matrix.EE4BEG9 VDD VDD
+ VSS VSS gf180mcu_fd_sc_mcu7t5v0__mux4_1
X_258_ FrameData[2] net44 Inst_W_IO4_ConfigMem.Inst_frame2_bit2.Q VDD VDD VSS VSS
+ gf180mcu_fd_sc_mcu7t5v0__latq_1
XFILLER_29_2 VDD VDD VSS VSS gf180mcu_fd_sc_mcu7t5v0__fillcap_8
XTAP_TAPCELL_ROW_54_309 VDD VSS gf180mcu_fd_sc_mcu7t5v0__filltie
XFILLER_34_32 VDD VDD VSS VSS gf180mcu_fd_sc_mcu7t5v0__fill_2
XFILLER_34_10 VDD VDD VSS VSS gf180mcu_fd_sc_mcu7t5v0__fill_2
X_112_ Inst_W_IO4_ConfigMem.Inst_frame0_bit15.Q _020_ _021_ _022_ _025_ net8 VDD VDD
+ VSS VSS gf180mcu_fd_sc_mcu7t5v0__oai32_1
XFILLER_46_174 VDD VDD VSS VSS gf180mcu_fd_sc_mcu7t5v0__fill_1
XFILLER_52_177 VDD VDD VSS VSS gf180mcu_fd_sc_mcu7t5v0__fillcap_32
XFILLER_20_34 VDD VDD VSS VSS gf180mcu_fd_sc_mcu7t5v0__fill_1
XFILLER_29_10 VDD VDD VSS VSS gf180mcu_fd_sc_mcu7t5v0__fillcap_4
XFILLER_43_188 VDD VDD VSS VSS gf180mcu_fd_sc_mcu7t5v0__fillcap_16
XFILLER_3_240 VDD VDD VSS VSS gf180mcu_fd_sc_mcu7t5v0__fill_1
XFILLER_34_111 VDD VDD VSS VSS gf180mcu_fd_sc_mcu7t5v0__fill_2
XFILLER_15_78 VDD VDD VSS VSS gf180mcu_fd_sc_mcu7t5v0__fill_2
XFILLER_40_103 VDD VDD VSS VSS gf180mcu_fd_sc_mcu7t5v0__fill_2
Xoutput88 net106 FrameData_O[23] VDD VDD VSS VSS gf180mcu_fd_sc_mcu7t5v0__buf_4
Xoutput9 net9 B_config_C_bit0 VDD VDD VSS VSS gf180mcu_fd_sc_mcu7t5v0__buf_4
Xoutput11 net11 B_config_C_bit2 VDD VDD VSS VSS gf180mcu_fd_sc_mcu7t5v0__buf_4
Xoutput22 net22 D_config_C_bit1 VDD VDD VSS VSS gf180mcu_fd_sc_mcu7t5v0__buf_4
Xoutput33 net33 E2BEG[4] VDD VDD VSS VSS gf180mcu_fd_sc_mcu7t5v0__buf_4
Xoutput44 net62 E2BEGb[7] VDD VDD VSS VSS gf180mcu_fd_sc_mcu7t5v0__buf_4
Xoutput66 net84 EE4BEG[3] VDD VDD VSS VSS gf180mcu_fd_sc_mcu7t5v0__buf_4
XFILLER_48_225 VDD VDD VSS VSS gf180mcu_fd_sc_mcu7t5v0__fill_2
Xoutput55 net73 E6BEG[8] VDD VDD VSS VSS gf180mcu_fd_sc_mcu7t5v0__buf_4
Xoutput99 net117 FrameData_O[4] VDD VDD VSS VSS gf180mcu_fd_sc_mcu7t5v0__buf_4
Xoutput77 net95 FrameData_O[13] VDD VDD VSS VSS gf180mcu_fd_sc_mcu7t5v0__buf_4
XFILLER_31_158 VDD VDD VSS VSS gf180mcu_fd_sc_mcu7t5v0__fill_1
XFILLER_60_209 VDD VDD VSS VSS gf180mcu_fd_sc_mcu7t5v0__fillcap_16
XFILLER_13_136 VDD VDD VSS VSS gf180mcu_fd_sc_mcu7t5v0__fillcap_4
X_360_ Inst_W_IO4_switch_matrix.E2BEG0 net29 VDD VDD VSS VSS gf180mcu_fd_sc_mcu7t5v0__buf_2
X_291_ FrameData[3] net49 Inst_W_IO4_ConfigMem.Inst_frame1_bit3.Q VDD VDD VSS VSS
+ gf180mcu_fd_sc_mcu7t5v0__latq_1
XFILLER_3_48 VDD VDD VSS VSS gf180mcu_fd_sc_mcu7t5v0__fillcap_16
XFILLER_8_151 VDD VDD VSS VSS gf180mcu_fd_sc_mcu7t5v0__fillcap_16
XFILLER_59_2 VDD VDD VSS VSS gf180mcu_fd_sc_mcu7t5v0__fillcap_64
XFILLER_42_209 VDD VDD VSS VSS gf180mcu_fd_sc_mcu7t5v0__fillcap_4
X_412_ FrameData[8] net121 VDD VDD VSS VSS gf180mcu_fd_sc_mcu7t5v0__buf_2
X_343_ FrameData[23] net53 Inst_W_IO4_ConfigMem.Inst_frame0_bit23.Q VDD VDD VSS VSS
+ gf180mcu_fd_sc_mcu7t5v0__latq_1
X_274_ FrameData[18] net45 Inst_W_IO4_ConfigMem.Inst_frame2_bit18.Q VDD VDD VSS VSS
+ gf180mcu_fd_sc_mcu7t5v0__latq_1
XFILLER_68_139 VDD VDD VSS VSS gf180mcu_fd_sc_mcu7t5v0__fillcap_16
XTAP_TAPCELL_ROW_34_248 VDD VSS gf180mcu_fd_sc_mcu7t5v0__filltie
XFILLER_23_220 VDD VDD VSS VSS gf180mcu_fd_sc_mcu7t5v0__fillcap_4
XTAP_TAPCELL_ROW_57_318 VDD VSS gf180mcu_fd_sc_mcu7t5v0__filltie
XFILLER_48_31 VDD VDD VSS VSS gf180mcu_fd_sc_mcu7t5v0__fillcap_4
XFILLER_9_36 VDD VDD VSS VSS gf180mcu_fd_sc_mcu7t5v0__fill_1
X_326_ FrameData[6] net54 Inst_W_IO4_ConfigMem.Inst_frame0_bit6.Q VDD VDD VSS VSS
+ gf180mcu_fd_sc_mcu7t5v0__latq_1
X_257_ FrameData[1] net43 Inst_W_IO4_ConfigMem.Inst_frame2_bit1.Q VDD VDD VSS VSS
+ gf180mcu_fd_sc_mcu7t5v0__latq_1
X_188_ W6END[0] W6END[2] W6END[4] A_O_top Inst_W_IO4_ConfigMem.Inst_frame1_bit0.Q
+ Inst_W_IO4_ConfigMem.Inst_frame1_bit1.Q Inst_W_IO4_switch_matrix.EE4BEG10 VDD VDD
+ VSS VSS gf180mcu_fd_sc_mcu7t5v0__mux4_1
XTAP_TAPCELL_ROW_62_332 VDD VSS gf180mcu_fd_sc_mcu7t5v0__filltie
XFILLER_20_234 VDD VDD VSS VSS gf180mcu_fd_sc_mcu7t5v0__fillcap_4
XFILLER_55_142 VDD VDD VSS VSS gf180mcu_fd_sc_mcu7t5v0__fillcap_64
XFILLER_70_101 VDD VDD VSS VSS gf180mcu_fd_sc_mcu7t5v0__fill_1
XFILLER_11_212 VDD VDD VSS VSS gf180mcu_fd_sc_mcu7t5v0__fillcap_16
XFILLER_11_201 VDD VDD VSS VSS gf180mcu_fd_sc_mcu7t5v0__fillcap_8
X_111_ Inst_W_IO4_ConfigMem.Inst_frame0_bit15.Q _023_ _024_ _025_ VDD VDD VSS VSS
+ gf180mcu_fd_sc_mcu7t5v0__nand3_1
XPHY_EDGE_ROW_28_Left_99 VDD VSS gf180mcu_fd_sc_mcu7t5v0__endcap
X_309_ FrameData[21] net47 Inst_W_IO4_ConfigMem.Inst_frame1_bit21.Q VDD VDD VSS VSS
+ gf180mcu_fd_sc_mcu7t5v0__latq_1
XFILLER_41_2 VDD VDD VSS VSS gf180mcu_fd_sc_mcu7t5v0__fillcap_8
XFILLER_69_212 VDD VDD VSS VSS gf180mcu_fd_sc_mcu7t5v0__fill_1
XFILLER_37_142 VDD VDD VSS VSS gf180mcu_fd_sc_mcu7t5v0__fill_1
XFILLER_1_92 VDD VDD VSS VSS gf180mcu_fd_sc_mcu7t5v0__fill_2
XFILLER_52_101 VDD VDD VSS VSS gf180mcu_fd_sc_mcu7t5v0__fillcap_4
XFILLER_28_142 VDD VDD VSS VSS gf180mcu_fd_sc_mcu7t5v0__fillcap_16
XFILLER_29_66 VDD VDD VSS VSS gf180mcu_fd_sc_mcu7t5v0__fillcap_4
XFILLER_45_10 VDD VDD VSS VSS gf180mcu_fd_sc_mcu7t5v0__fill_1
XFILLER_6_37 VDD VDD VSS VSS gf180mcu_fd_sc_mcu7t5v0__fillcap_16
Xoutput12 net12 B_config_C_bit3 VDD VDD VSS VSS gf180mcu_fd_sc_mcu7t5v0__buf_4
Xoutput23 net23 D_config_C_bit2 VDD VDD VSS VSS gf180mcu_fd_sc_mcu7t5v0__buf_4
Xoutput34 net34 E2BEG[5] VDD VDD VSS VSS gf180mcu_fd_sc_mcu7t5v0__buf_4
Xoutput89 net107 FrameData_O[24] VDD VDD VSS VSS gf180mcu_fd_sc_mcu7t5v0__buf_4
Xoutput67 net85 EE4BEG[4] VDD VDD VSS VSS gf180mcu_fd_sc_mcu7t5v0__buf_4
Xoutput45 net63 E6BEG[0] VDD VDD VSS VSS gf180mcu_fd_sc_mcu7t5v0__buf_4
Xoutput56 net74 E6BEG[9] VDD VDD VSS VSS gf180mcu_fd_sc_mcu7t5v0__buf_4
Xoutput78 net96 FrameData_O[14] VDD VDD VSS VSS gf180mcu_fd_sc_mcu7t5v0__buf_4
XPHY_EDGE_ROW_15_Left_86 VDD VSS gf180mcu_fd_sc_mcu7t5v0__endcap
XFILLER_13_148 VDD VDD VSS VSS gf180mcu_fd_sc_mcu7t5v0__fill_2
X_290_ FrameData[2] net49 Inst_W_IO4_ConfigMem.Inst_frame1_bit2.Q VDD VDD VSS VSS
+ gf180mcu_fd_sc_mcu7t5v0__latq_1
XFILLER_3_16 VDD VDD VSS VSS gf180mcu_fd_sc_mcu7t5v0__fillcap_32
XTAP_TAPCELL_ROW_37_257 VDD VSS gf180mcu_fd_sc_mcu7t5v0__filltie
XFILLER_12_69 VDD VDD VSS VSS gf180mcu_fd_sc_mcu7t5v0__fill_2
X_342_ FrameData[22] net51 Inst_W_IO4_ConfigMem.Inst_frame0_bit22.Q VDD VDD VSS VSS
+ gf180mcu_fd_sc_mcu7t5v0__latq_1
X_411_ FrameData[7] net120 VDD VDD VSS VSS gf180mcu_fd_sc_mcu7t5v0__buf_2
XTAP_TAPCELL_ROW_11_179 VDD VSS gf180mcu_fd_sc_mcu7t5v0__filltie
XFILLER_5_100 VDD VDD VSS VSS gf180mcu_fd_sc_mcu7t5v0__fill_2
X_273_ FrameData[17] net45 Inst_W_IO4_ConfigMem.Inst_frame2_bit17.Q VDD VDD VSS VSS
+ gf180mcu_fd_sc_mcu7t5v0__latq_1
XFILLER_68_107 VDD VDD VSS VSS gf180mcu_fd_sc_mcu7t5v0__fillcap_32
XFILLER_17_240 VDD VDD VSS VSS gf180mcu_fd_sc_mcu7t5v0__fill_1
XFILLER_32_221 VDD VDD VSS VSS gf180mcu_fd_sc_mcu7t5v0__fillcap_4
XTAP_TAPCELL_ROW_34_249 VDD VSS gf180mcu_fd_sc_mcu7t5v0__filltie
XTAP_TAPCELL_ROW_57_319 VDD VSS gf180mcu_fd_sc_mcu7t5v0__filltie
XTAP_TAPCELL_ROW_65_341 VDD VSS gf180mcu_fd_sc_mcu7t5v0__filltie
XFILLER_23_232 VDD VDD VSS VSS gf180mcu_fd_sc_mcu7t5v0__fillcap_8
XPHY_EDGE_ROW_36_Left_107 VDD VSS gf180mcu_fd_sc_mcu7t5v0__endcap
XPHY_EDGE_ROW_45_Left_116 VDD VSS gf180mcu_fd_sc_mcu7t5v0__endcap
X_325_ FrameData[5] net51 Inst_W_IO4_ConfigMem.Inst_frame0_bit5.Q VDD VDD VSS VSS
+ gf180mcu_fd_sc_mcu7t5v0__latq_1
XPHY_EDGE_ROW_54_Left_125 VDD VSS gf180mcu_fd_sc_mcu7t5v0__endcap
X_256_ FrameData[0] net46 Inst_W_IO4_ConfigMem.Inst_frame2_bit0.Q VDD VDD VSS VSS
+ gf180mcu_fd_sc_mcu7t5v0__latq_1
X_187_ W6END[6] W6END[8] W6END[10] B_O_top Inst_W_IO4_ConfigMem.Inst_frame1_bit2.Q
+ Inst_W_IO4_ConfigMem.Inst_frame1_bit3.Q Inst_W_IO4_switch_matrix.EE4BEG11 VDD VDD
+ VSS VSS gf180mcu_fd_sc_mcu7t5v0__mux4_1
XPHY_EDGE_ROW_63_Left_134 VDD VSS gf180mcu_fd_sc_mcu7t5v0__endcap
XTAP_TAPCELL_ROW_62_333 VDD VSS gf180mcu_fd_sc_mcu7t5v0__filltie
XFILLER_70_135 VDD VDD VSS VSS gf180mcu_fd_sc_mcu7t5v0__fill_1
X_110_ W2END[4] Inst_W_IO4_ConfigMem.Inst_frame0_bit16.Q _024_ VDD VDD VSS VSS gf180mcu_fd_sc_mcu7t5v0__nand2_1
XFILLER_34_45 VDD VDD VSS VSS gf180mcu_fd_sc_mcu7t5v0__fillcap_4
XFILLER_34_34 VDD VDD VSS VSS gf180mcu_fd_sc_mcu7t5v0__fill_1
Xwire126 net7 net144 VDD VDD VSS VSS gf180mcu_fd_sc_mcu7t5v0__clkbuf_1
XFILLER_7_228 VDD VDD VSS VSS gf180mcu_fd_sc_mcu7t5v0__fillcap_8
XFILLER_7_206 VDD VDD VSS VSS gf180mcu_fd_sc_mcu7t5v0__fillcap_4
XFILLER_1_2 VDD VDD VSS VSS gf180mcu_fd_sc_mcu7t5v0__fillcap_64
XPHY_EDGE_ROW_3_Left_74 VDD VSS gf180mcu_fd_sc_mcu7t5v0__endcap
X_239_ FrameData[15] net40 Inst_W_IO4_ConfigMem.Inst_frame3_bit15.Q VDD VDD VSS VSS
+ gf180mcu_fd_sc_mcu7t5v0__latq_1
X_308_ FrameData[20] net50 Inst_W_IO4_ConfigMem.Inst_frame1_bit20.Q VDD VDD VSS VSS
+ gf180mcu_fd_sc_mcu7t5v0__latq_1
XFILLER_34_2 VDD VDD VSS VSS gf180mcu_fd_sc_mcu7t5v0__fillcap_8
XFILLER_28_121 VDD VDD VSS VSS gf180mcu_fd_sc_mcu7t5v0__fill_1
XFILLER_43_146 VDD VDD VSS VSS gf180mcu_fd_sc_mcu7t5v0__fill_2
XFILLER_34_113 VDD VDD VSS VSS gf180mcu_fd_sc_mcu7t5v0__fill_1
XFILLER_34_146 VDD VDD VSS VSS gf180mcu_fd_sc_mcu7t5v0__fillcap_4
XFILLER_25_157 VDD VDD VSS VSS gf180mcu_fd_sc_mcu7t5v0__fill_2
Xoutput13 net145 C_I_top VDD VDD VSS VSS gf180mcu_fd_sc_mcu7t5v0__buf_4
Xoutput24 net24 D_config_C_bit3 VDD VDD VSS VSS gf180mcu_fd_sc_mcu7t5v0__buf_4
Xoutput35 net35 E2BEG[6] VDD VDD VSS VSS gf180mcu_fd_sc_mcu7t5v0__buf_4
Xoutput57 net75 EE4BEG[0] VDD VDD VSS VSS gf180mcu_fd_sc_mcu7t5v0__buf_4
Xoutput46 net64 E6BEG[10] VDD VDD VSS VSS gf180mcu_fd_sc_mcu7t5v0__buf_4
Xoutput68 net86 EE4BEG[5] VDD VDD VSS VSS gf180mcu_fd_sc_mcu7t5v0__buf_4
Xoutput79 net97 FrameData_O[15] VDD VDD VSS VSS gf180mcu_fd_sc_mcu7t5v0__buf_4
XFILLER_16_113 VDD VDD VSS VSS gf180mcu_fd_sc_mcu7t5v0__fill_2
XPHY_EDGE_ROW_19_Right_19 VDD VSS gf180mcu_fd_sc_mcu7t5v0__endcap
XPHY_EDGE_ROW_28_Right_28 VDD VSS gf180mcu_fd_sc_mcu7t5v0__endcap
XFILLER_39_205 VDD VDD VSS VSS gf180mcu_fd_sc_mcu7t5v0__fillcap_4
XPHY_EDGE_ROW_37_Right_37 VDD VSS gf180mcu_fd_sc_mcu7t5v0__endcap
XFILLER_22_127 VDD VDD VSS VSS gf180mcu_fd_sc_mcu7t5v0__fillcap_4
XFILLER_30_171 VDD VDD VSS VSS gf180mcu_fd_sc_mcu7t5v0__fillcap_4
XPHY_EDGE_ROW_46_Right_46 VDD VSS gf180mcu_fd_sc_mcu7t5v0__endcap
XPHY_EDGE_ROW_55_Right_55 VDD VSS gf180mcu_fd_sc_mcu7t5v0__endcap
XFILLER_13_127 VDD VDD VSS VSS gf180mcu_fd_sc_mcu7t5v0__fill_2
XPHY_EDGE_ROW_64_Right_64 VDD VSS gf180mcu_fd_sc_mcu7t5v0__endcap
XTAP_TAPCELL_ROW_14_188 VDD VSS gf180mcu_fd_sc_mcu7t5v0__filltie
XFILLER_8_131 VDD VDD VSS VSS gf180mcu_fd_sc_mcu7t5v0__fill_1
XTAP_TAPCELL_ROW_37_258 VDD VSS gf180mcu_fd_sc_mcu7t5v0__filltie
XTAP_TAPCELL_ROW_68_350 VDD VSS gf180mcu_fd_sc_mcu7t5v0__filltie
X_341_ FrameData[21] net51 Inst_W_IO4_ConfigMem.Inst_frame0_bit21.Q VDD VDD VSS VSS
+ gf180mcu_fd_sc_mcu7t5v0__latq_1
X_410_ FrameData[6] net119 VDD VDD VSS VSS gf180mcu_fd_sc_mcu7t5v0__buf_2
X_272_ FrameData[16] net45 Inst_W_IO4_ConfigMem.Inst_frame2_bit16.Q VDD VDD VSS VSS
+ gf180mcu_fd_sc_mcu7t5v0__latq_1
XFILLER_53_66 VDD VDD VSS VSS gf180mcu_fd_sc_mcu7t5v0__fillcap_4
XTAP_TAPCELL_ROW_19_203 VDD VSS gf180mcu_fd_sc_mcu7t5v0__filltie
XTAP_TAPCELL_ROW_42_272 VDD VSS gf180mcu_fd_sc_mcu7t5v0__filltie
XFILLER_64_2 VDD VDD VSS VSS gf180mcu_fd_sc_mcu7t5v0__fillcap_32
XFILLER_67_174 VDD VDD VSS VSS gf180mcu_fd_sc_mcu7t5v0__fillcap_8
XTAP_TAPCELL_ROW_65_342 VDD VSS gf180mcu_fd_sc_mcu7t5v0__filltie
X_255_ FrameData[31] net41 Inst_W_IO4_ConfigMem.Inst_frame3_bit31.Q VDD VDD VSS VSS
+ gf180mcu_fd_sc_mcu7t5v0__latq_1
X_324_ FrameData[4] net51 Inst_W_IO4_ConfigMem.Inst_frame0_bit4.Q VDD VDD VSS VSS
+ gf180mcu_fd_sc_mcu7t5v0__latq_1
X_186_ W6END[1] W6END[3] W6END[5] Inst_A_IO_1_bidirectional_frame_config_pass.Q Inst_W_IO4_ConfigMem.Inst_frame1_bit4.Q
+ Inst_W_IO4_ConfigMem.Inst_frame1_bit5.Q Inst_W_IO4_switch_matrix.EE4BEG12 VDD VDD
+ VSS VSS gf180mcu_fd_sc_mcu7t5v0__mux4_1
XTAP_TAPCELL_ROW_62_334 VDD VSS gf180mcu_fd_sc_mcu7t5v0__filltie
XFILLER_64_177 VDD VDD VSS VSS gf180mcu_fd_sc_mcu7t5v0__fillcap_32
XFILLER_11_236 VDD VDD VSS VSS gf180mcu_fd_sc_mcu7t5v0__fillcap_4
Xwire127 net13 net145 VDD VDD VSS VSS gf180mcu_fd_sc_mcu7t5v0__clkbuf_1
XFILLER_50_45 VDD VDD VSS VSS gf180mcu_fd_sc_mcu7t5v0__fill_2
XFILLER_50_34 VDD VDD VSS VSS gf180mcu_fd_sc_mcu7t5v0__fill_1
XFILLER_46_177 VDD VDD VSS VSS gf180mcu_fd_sc_mcu7t5v0__fillcap_32
XFILLER_61_136 VDD VDD VSS VSS gf180mcu_fd_sc_mcu7t5v0__fillcap_4
X_238_ FrameData[14] net39 Inst_W_IO4_ConfigMem.Inst_frame3_bit14.Q VDD VDD VSS VSS
+ gf180mcu_fd_sc_mcu7t5v0__latq_1
X_169_ Inst_W_IO4_ConfigMem.Inst_frame0_bit5.Q _074_ _076_ _011_ _077_ VDD VDD VSS
+ VSS gf180mcu_fd_sc_mcu7t5v0__aoi211_1
X_307_ FrameData[19] net48 Inst_W_IO4_ConfigMem.Inst_frame1_bit19.Q VDD VDD VSS VSS
+ gf180mcu_fd_sc_mcu7t5v0__latq_1
XFILLER_1_94 VDD VDD VSS VSS gf180mcu_fd_sc_mcu7t5v0__fill_1
XFILLER_1_72 VDD VDD VSS VSS gf180mcu_fd_sc_mcu7t5v0__fillcap_16
XFILLER_28_166 VDD VDD VSS VSS gf180mcu_fd_sc_mcu7t5v0__fill_1
XFILLER_28_177 VDD VDD VSS VSS gf180mcu_fd_sc_mcu7t5v0__fillcap_32
XFILLER_45_67 VDD VDD VSS VSS gf180mcu_fd_sc_mcu7t5v0__fill_2
XFILLER_61_66 VDD VDD VSS VSS gf180mcu_fd_sc_mcu7t5v0__fillcap_4
XFILLER_57_206 VDD VDD VSS VSS gf180mcu_fd_sc_mcu7t5v0__fillcap_4
XFILLER_33_180 VDD VDD VSS VSS gf180mcu_fd_sc_mcu7t5v0__fillcap_16