*SPEF "ieee 1481-1999"
*DESIGN "N_term_DSP"
*DATE "22:48:46 Friday December 05, 2025"
*VENDOR "The OpenROAD Project"
*PROGRAM "OpenROAD"
*VERSION "341650e72dad0dc8571822ff8c5d9c5e365327f7"
*DESIGN_FLOW "NAME_SCOPE LOCAL" "PIN_CAP NONE"
*DIVIDER /
*DELIMITER :
*BUS_DELIMITER []
*T_UNIT 1 NS
*C_UNIT 1 PF
*R_UNIT 1 OHM
*L_UNIT 1 HENRY

*NAME_MAP
*1 FrameData[0]
*2 FrameData[10]
*3 FrameData[11]
*4 FrameData[12]
*5 FrameData[13]
*6 FrameData[14]
*7 FrameData[15]
*8 FrameData[16]
*9 FrameData[17]
*10 FrameData[18]
*11 FrameData[19]
*12 FrameData[1]
*13 FrameData[20]
*14 FrameData[21]
*15 FrameData[22]
*16 FrameData[23]
*17 FrameData[24]
*18 FrameData[25]
*19 FrameData[26]
*20 FrameData[27]
*21 FrameData[28]
*22 FrameData[29]
*23 FrameData[2]
*24 FrameData[30]
*25 FrameData[31]
*26 FrameData[3]
*27 FrameData[4]
*28 FrameData[5]
*29 FrameData[6]
*30 FrameData[7]
*31 FrameData[8]
*32 FrameData[9]
*33 FrameData_O[0]
*34 FrameData_O[10]
*35 FrameData_O[11]
*36 FrameData_O[12]
*37 FrameData_O[13]
*38 FrameData_O[14]
*39 FrameData_O[15]
*40 FrameData_O[16]
*41 FrameData_O[17]
*42 FrameData_O[18]
*43 FrameData_O[19]
*44 FrameData_O[1]
*45 FrameData_O[20]
*46 FrameData_O[21]
*47 FrameData_O[22]
*48 FrameData_O[23]
*49 FrameData_O[24]
*50 FrameData_O[25]
*51 FrameData_O[26]
*52 FrameData_O[27]
*53 FrameData_O[28]
*54 FrameData_O[29]
*55 FrameData_O[2]
*56 FrameData_O[30]
*57 FrameData_O[31]
*58 FrameData_O[3]
*59 FrameData_O[4]
*60 FrameData_O[5]
*61 FrameData_O[6]
*62 FrameData_O[7]
*63 FrameData_O[8]
*64 FrameData_O[9]
*65 FrameStrobe[0]
*66 FrameStrobe[10]
*67 FrameStrobe[11]
*68 FrameStrobe[12]
*69 FrameStrobe[13]
*70 FrameStrobe[14]
*71 FrameStrobe[15]
*72 FrameStrobe[16]
*73 FrameStrobe[17]
*74 FrameStrobe[18]
*75 FrameStrobe[19]
*76 FrameStrobe[1]
*77 FrameStrobe[2]
*78 FrameStrobe[3]
*79 FrameStrobe[4]
*80 FrameStrobe[5]
*81 FrameStrobe[6]
*82 FrameStrobe[7]
*83 FrameStrobe[8]
*84 FrameStrobe[9]
*85 FrameStrobe_O[0]
*86 FrameStrobe_O[10]
*87 FrameStrobe_O[11]
*88 FrameStrobe_O[12]
*89 FrameStrobe_O[13]
*90 FrameStrobe_O[14]
*91 FrameStrobe_O[15]
*92 FrameStrobe_O[16]
*93 FrameStrobe_O[17]
*94 FrameStrobe_O[18]
*95 FrameStrobe_O[19]
*96 FrameStrobe_O[1]
*97 FrameStrobe_O[2]
*98 FrameStrobe_O[3]
*99 FrameStrobe_O[4]
*100 FrameStrobe_O[5]
*101 FrameStrobe_O[6]
*102 FrameStrobe_O[7]
*103 FrameStrobe_O[8]
*104 FrameStrobe_O[9]
*105 N1END[0]
*106 N1END[1]
*107 N1END[2]
*108 N1END[3]
*109 N2END[0]
*110 N2END[1]
*111 N2END[2]
*112 N2END[3]
*113 N2END[4]
*114 N2END[5]
*115 N2END[6]
*116 N2END[7]
*117 N2MID[0]
*118 N2MID[1]
*119 N2MID[2]
*120 N2MID[3]
*121 N2MID[4]
*122 N2MID[5]
*123 N2MID[6]
*124 N2MID[7]
*125 N4END[0]
*126 N4END[10]
*127 N4END[11]
*128 N4END[12]
*129 N4END[13]
*130 N4END[14]
*131 N4END[15]
*132 N4END[1]
*133 N4END[2]
*134 N4END[3]
*135 N4END[4]
*136 N4END[5]
*137 N4END[6]
*138 N4END[7]
*139 N4END[8]
*140 N4END[9]
*141 NN4END[0]
*142 NN4END[10]
*143 NN4END[11]
*144 NN4END[12]
*145 NN4END[13]
*146 NN4END[14]
*147 NN4END[15]
*148 NN4END[1]
*149 NN4END[2]
*150 NN4END[3]
*151 NN4END[4]
*152 NN4END[5]
*153 NN4END[6]
*154 NN4END[7]
*155 NN4END[8]
*156 NN4END[9]
*157 S1BEG[0]
*158 S1BEG[1]
*159 S1BEG[2]
*160 S1BEG[3]
*161 S2BEG[0]
*162 S2BEG[1]
*163 S2BEG[2]
*164 S2BEG[3]
*165 S2BEG[4]
*166 S2BEG[5]
*167 S2BEG[6]
*168 S2BEG[7]
*169 S2BEGb[0]
*170 S2BEGb[1]
*171 S2BEGb[2]
*172 S2BEGb[3]
*173 S2BEGb[4]
*174 S2BEGb[5]
*175 S2BEGb[6]
*176 S2BEGb[7]
*177 S4BEG[0]
*178 S4BEG[10]
*179 S4BEG[11]
*180 S4BEG[12]
*181 S4BEG[13]
*182 S4BEG[14]
*183 S4BEG[15]
*184 S4BEG[1]
*185 S4BEG[2]
*186 S4BEG[3]
*187 S4BEG[4]
*188 S4BEG[5]
*189 S4BEG[6]
*190 S4BEG[7]
*191 S4BEG[8]
*192 S4BEG[9]
*193 SS4BEG[0]
*194 SS4BEG[10]
*195 SS4BEG[11]
*196 SS4BEG[12]
*197 SS4BEG[13]
*198 SS4BEG[14]
*199 SS4BEG[15]
*200 SS4BEG[1]
*201 SS4BEG[2]
*202 SS4BEG[3]
*203 SS4BEG[4]
*204 SS4BEG[5]
*205 SS4BEG[6]
*206 SS4BEG[7]
*207 SS4BEG[8]
*208 SS4BEG[9]
*209 UserCLK
*210 UserCLKo
*213 net1
*214 net10
*215 net100
*216 net101
*217 net102
*218 net103
*219 net104
*220 net105
*221 net11
*222 net12
*223 net13
*224 net14
*225 net15
*226 net16
*227 net17
*228 net18
*229 net19
*230 net2
*231 net20
*232 net21
*233 net22
*234 net23
*235 net24
*236 net25
*237 net26
*238 net27
*239 net28
*240 net29
*241 net3
*242 net30
*243 net31
*244 net32
*245 net33
*246 net34
*247 net35
*248 net36
*249 net37
*250 net38
*251 net39
*252 net4
*253 net40
*254 net41
*255 net42
*256 net43
*257 net44
*258 net45
*259 net46
*260 net47
*261 net48
*262 net49
*263 net5
*264 net50
*265 net51
*266 net52
*267 net53
*268 net54
*269 net55
*270 net56
*271 net57
*272 net58
*273 net59
*274 net6
*275 net60
*276 net61
*277 net62
*278 net63
*279 net64
*280 net65
*281 net66
*282 net67
*283 net68
*284 net69
*285 net7
*286 net70
*287 net71
*288 net72
*289 net73
*290 net74
*291 net75
*292 net76
*293 net77
*294 net78
*295 net79
*296 net8
*297 net80
*298 net81
*299 net82
*300 net83
*301 net84
*302 net85
*303 net86
*304 net87
*305 net88
*306 net89
*307 net9
*308 net90
*309 net91
*310 net92
*311 net93
*312 net94
*313 net95
*314 net96
*315 net97
*316 net98
*317 net99
*318 FILLER_0_104
*319 FILLER_0_138
*320 FILLER_0_172
*321 FILLER_0_2
*322 FILLER_0_206
*323 FILLER_0_268
*324 FILLER_0_302
*325 FILLER_0_336
*326 FILLER_0_36
*327 FILLER_0_370
*328 FILLER_0_376
*329 FILLER_0_410
*330 FILLER_0_452
*331 FILLER_0_456
*332 FILLER_0_70
*333 FILLER_10_103
*334 FILLER_10_107
*335 FILLER_10_171
*336 FILLER_10_177
*337 FILLER_10_18
*338 FILLER_10_2
*339 FILLER_10_241
*340 FILLER_10_247
*341 FILLER_10_26
*342 FILLER_10_311
*343 FILLER_10_317
*344 FILLER_10_37
*345 FILLER_10_381
*346 FILLER_10_387
*347 FILLER_10_391
*348 FILLER_10_393
*349 FILLER_10_402
*350 FILLER_10_418
*351 FILLER_10_69
*352 FILLER_10_85
*353 FILLER_10_95
*354 FILLER_11_104
*355 FILLER_11_120
*356 FILLER_11_128
*357 FILLER_11_142
*358 FILLER_11_15
*359 FILLER_11_158
*360 FILLER_11_162
*361 FILLER_11_164
*362 FILLER_11_173
*363 FILLER_11_2
*364 FILLER_11_205
*365 FILLER_11_209
*366 FILLER_11_212
*367 FILLER_11_276
*368 FILLER_11_290
*369 FILLER_11_31
*370 FILLER_11_322
*371 FILLER_11_338
*372 FILLER_11_346
*373 FILLER_11_352
*374 FILLER_11_384
*375 FILLER_11_400
*376 FILLER_11_408
*377 FILLER_11_422
*378 FILLER_11_426
*379 FILLER_11_428
*380 FILLER_11_47
*381 FILLER_11_6
*382 FILLER_11_63
*383 FILLER_11_67
*384 FILLER_11_69
*385 FILLER_11_72
*386 FILLER_12_101
*387 FILLER_12_107
*388 FILLER_12_171
*389 FILLER_12_177
*390 FILLER_12_185
*391 FILLER_12_189
*392 FILLER_12_191
*393 FILLER_12_2
*394 FILLER_12_200
*395 FILLER_12_216
*396 FILLER_12_224
*397 FILLER_12_228
*398 FILLER_12_230
*399 FILLER_12_239
*400 FILLER_12_243
*401 FILLER_12_247
*402 FILLER_12_279
*403 FILLER_12_295
*404 FILLER_12_303
*405 FILLER_12_317
*406 FILLER_12_325
*407 FILLER_12_335
*408 FILLER_12_34
*409 FILLER_12_367
*410 FILLER_12_37
*411 FILLER_12_383
*412 FILLER_12_387
*413 FILLER_12_403
*414 FILLER_13_104
*415 FILLER_13_120
*416 FILLER_13_124
*417 FILLER_13_126
*418 FILLER_13_135
*419 FILLER_13_139
*420 FILLER_13_142
*421 FILLER_13_158
*422 FILLER_13_190
*423 FILLER_13_2
*424 FILLER_13_206
*425 FILLER_13_212
*426 FILLER_13_214
*427 FILLER_13_223
*428 FILLER_13_255
*429 FILLER_13_271
*430 FILLER_13_279
*431 FILLER_13_282
*432 FILLER_13_314
*433 FILLER_13_330
*434 FILLER_13_332
*435 FILLER_13_341
*436 FILLER_13_349
*437 FILLER_13_352
*438 FILLER_13_384
*439 FILLER_13_392
*440 FILLER_13_396
*441 FILLER_13_422
*442 FILLER_13_426
*443 FILLER_13_428
*444 FILLER_13_66
*445 FILLER_13_72
*446 FILLER_14_10
*447 FILLER_14_102
*448 FILLER_14_104
*449 FILLER_14_107
*450 FILLER_14_171
*451 FILLER_14_177
*452 FILLER_14_2
*453 FILLER_14_20
*454 FILLER_14_241
*455 FILLER_14_247
*456 FILLER_14_255
*457 FILLER_14_273
*458 FILLER_14_277
*459 FILLER_14_279
*460 FILLER_14_28
*461 FILLER_14_286
*462 FILLER_14_288
*463 FILLER_14_305
*464 FILLER_14_313
*465 FILLER_14_317
*466 FILLER_14_32
*467 FILLER_14_325
*468 FILLER_14_327
*469 FILLER_14_336
*470 FILLER_14_34
*471 FILLER_14_352
*472 FILLER_14_37
*473 FILLER_14_376
*474 FILLER_14_384
*475 FILLER_14_395
*476 FILLER_14_53
*477 FILLER_14_63
*478 FILLER_14_79
*479 FILLER_14_81
*480 FILLER_14_90
*481 FILLER_14_98
*482 FILLER_15_101
*483 FILLER_15_118
*484 FILLER_15_133
*485 FILLER_15_135
*486 FILLER_15_138
*487 FILLER_15_140
*488 FILLER_15_15
*489 FILLER_15_155
*490 FILLER_15_172
*491 FILLER_15_180
*492 FILLER_15_184
*493 FILLER_15_199
*494 FILLER_15_2
*495 FILLER_15_203
*496 FILLER_15_206
*497 FILLER_15_221
*498 FILLER_15_223
*499 FILLER_15_240
*500 FILLER_15_248
*501 FILLER_15_250
*502 FILLER_15_265
*503 FILLER_15_269
*504 FILLER_15_271
*505 FILLER_15_288
*506 FILLER_15_308
*507 FILLER_15_31
*508 FILLER_15_316
*509 FILLER_15_33
*510 FILLER_15_331
*511 FILLER_15_339
*512 FILLER_15_356
*513 FILLER_15_376
*514 FILLER_15_380
*515 FILLER_15_382
*516 FILLER_15_397
*517 FILLER_15_399
*518 FILLER_15_424
*519 FILLER_15_426
*520 FILLER_15_441
*521 FILLER_15_452
*522 FILLER_15_456
*523 FILLER_15_50
*524 FILLER_15_52
*525 FILLER_15_6
*526 FILLER_15_67
*527 FILLER_15_70
*528 FILLER_15_74
*529 FILLER_15_8
*530 FILLER_15_89
*531 FILLER_15_97
*532 FILLER_1_101
*533 FILLER_1_133
*534 FILLER_1_137
*535 FILLER_1_139
*536 FILLER_1_142
*537 FILLER_1_150
*538 FILLER_1_154
*539 FILLER_1_163
*540 FILLER_1_171
*541 FILLER_1_175
*542 FILLER_1_177
*543 FILLER_1_18
*544 FILLER_1_186
*545 FILLER_1_194
*546 FILLER_1_2
*547 FILLER_1_212
*548 FILLER_1_214
*549 FILLER_1_26
*550 FILLER_1_279
*551 FILLER_1_30
*552 FILLER_1_346
*553 FILLER_1_352
*554 FILLER_1_384
*555 FILLER_1_392
*556 FILLER_1_40
*557 FILLER_1_402
*558 FILLER_1_410
*559 FILLER_1_422
*560 FILLER_1_426
*561 FILLER_1_428
*562 FILLER_1_56
*563 FILLER_1_64
*564 FILLER_1_68
*565 FILLER_1_72
*566 FILLER_1_88
*567 FILLER_1_92
*568 FILLER_2_107
*569 FILLER_2_171
*570 FILLER_2_177
*571 FILLER_2_18
*572 FILLER_2_193
*573 FILLER_2_2
*574 FILLER_2_27
*575 FILLER_2_311
*576 FILLER_2_353
*577 FILLER_2_37
*578 FILLER_2_387
*579 FILLER_2_403
*580 FILLER_2_69
*581 FILLER_2_77
*582 FILLER_2_97
*583 FILLER_3_127
*584 FILLER_3_135
*585 FILLER_3_139
*586 FILLER_3_142
*587 FILLER_3_150
*588 FILLER_3_160
*589 FILLER_3_192
*590 FILLER_3_2
*591 FILLER_3_212
*592 FILLER_3_216
*593 FILLER_3_239
*594 FILLER_3_243
*595 FILLER_3_273
*596 FILLER_3_277
*597 FILLER_3_279
*598 FILLER_3_338
*599 FILLER_3_346
*600 FILLER_3_352
*601 FILLER_3_384
*602 FILLER_3_400
*603 FILLER_3_408
*604 FILLER_3_422
*605 FILLER_3_426
*606 FILLER_3_428
*607 FILLER_3_66
*608 FILLER_3_72
*609 FILLER_3_80
*610 FILLER_3_84
*611 FILLER_3_86
*612 FILLER_3_95
*613 FILLER_4_101
*614 FILLER_4_115
*615 FILLER_4_147
*616 FILLER_4_163
*617 FILLER_4_171
*618 FILLER_4_177
*619 FILLER_4_18
*620 FILLER_4_193
*621 FILLER_4_197
*622 FILLER_4_2
*623 FILLER_4_235
*624 FILLER_4_243
*625 FILLER_4_311
*626 FILLER_4_339
*627 FILLER_4_34
*628 FILLER_4_37
*629 FILLER_4_371
*630 FILLER_4_379
*631 FILLER_4_383
*632 FILLER_4_387
*633 FILLER_4_397
*634 FILLER_4_413
*635 FILLER_4_417
*636 FILLER_4_426
*637 FILLER_5_104
*638 FILLER_5_112
*639 FILLER_5_116
*640 FILLER_5_118
*641 FILLER_5_127
*642 FILLER_5_135
*643 FILLER_5_139
*644 FILLER_5_142
*645 FILLER_5_146
*646 FILLER_5_148
*647 FILLER_5_157
*648 FILLER_5_18
*649 FILLER_5_189
*650 FILLER_5_2
*651 FILLER_5_205
*652 FILLER_5_209
*653 FILLER_5_212
*654 FILLER_5_220
*655 FILLER_5_229
*656 FILLER_5_245
*657 FILLER_5_253
*658 FILLER_5_26
*659 FILLER_5_279
*660 FILLER_5_30
*661 FILLER_5_338
*662 FILLER_5_346
*663 FILLER_5_360
*664 FILLER_5_39
*665 FILLER_5_392
*666 FILLER_5_408
*667 FILLER_5_416
*668 FILLER_5_422
*669 FILLER_5_426
*670 FILLER_5_428
*671 FILLER_5_55
*672 FILLER_5_63
*673 FILLER_5_67
*674 FILLER_5_69
*675 FILLER_5_72
*676 FILLER_6_115
*677 FILLER_6_147
*678 FILLER_6_15
*679 FILLER_6_163
*680 FILLER_6_171
*681 FILLER_6_177
*682 FILLER_6_2
*683 FILLER_6_241
*684 FILLER_6_247
*685 FILLER_6_255
*686 FILLER_6_259
*687 FILLER_6_261
*688 FILLER_6_270
*689 FILLER_6_31
*690 FILLER_6_341
*691 FILLER_6_357
*692 FILLER_6_367
*693 FILLER_6_383
*694 FILLER_6_387
*695 FILLER_6_403
*696 FILLER_6_405
*697 FILLER_6_422
*698 FILLER_6_424
*699 FILLER_6_45
*700 FILLER_6_6
*701 FILLER_6_77
*702 FILLER_6_93
*703 FILLER_7_104
*704 FILLER_7_120
*705 FILLER_7_128
*706 FILLER_7_150
*707 FILLER_7_182
*708 FILLER_7_198
*709 FILLER_7_2
*710 FILLER_7_206
*711 FILLER_7_212
*712 FILLER_7_228
*713 FILLER_7_244
*714 FILLER_7_260
*715 FILLER_7_264
*716 FILLER_7_274
*717 FILLER_7_278
*718 FILLER_7_282
*719 FILLER_7_290
*720 FILLER_7_302
*721 FILLER_7_306
*722 FILLER_7_315
*723 FILLER_7_34
*724 FILLER_7_347
*725 FILLER_7_349
*726 FILLER_7_352
*727 FILLER_7_368
*728 FILLER_7_377
*729 FILLER_7_385
*730 FILLER_7_387
*731 FILLER_7_396
*732 FILLER_7_412
*733 FILLER_7_422
*734 FILLER_7_426
*735 FILLER_7_428
*736 FILLER_7_50
*737 FILLER_7_58
*738 FILLER_7_72
*739 FILLER_8_100
*740 FILLER_8_104
*741 FILLER_8_107
*742 FILLER_8_15
*743 FILLER_8_171
*744 FILLER_8_177
*745 FILLER_8_185
*746 FILLER_8_197
*747 FILLER_8_2
*748 FILLER_8_205
*749 FILLER_8_209
*750 FILLER_8_211
*751 FILLER_8_220
*752 FILLER_8_236
*753 FILLER_8_244
*754 FILLER_8_247
*755 FILLER_8_31
*756 FILLER_8_311
*757 FILLER_8_317
*758 FILLER_8_37
*759 FILLER_8_381
*760 FILLER_8_387
*761 FILLER_8_41
*762 FILLER_8_43
*763 FILLER_8_52
*764 FILLER_8_6
*765 FILLER_8_76
*766 FILLER_8_92
*767 FILLER_9_136
*768 FILLER_9_142
*769 FILLER_9_150
*770 FILLER_9_154
*771 FILLER_9_156
*772 FILLER_9_165
*773 FILLER_9_197
*774 FILLER_9_2
*775 FILLER_9_201
*776 FILLER_9_212
*777 FILLER_9_244
*778 FILLER_9_260
*779 FILLER_9_262
*780 FILLER_9_271
*781 FILLER_9_279
*782 FILLER_9_282
*783 FILLER_9_346
*784 FILLER_9_352
*785 FILLER_9_368
*786 FILLER_9_372
*787 FILLER_9_381
*788 FILLER_9_397
*789 FILLER_9_405
*790 FILLER_9_407
*791 FILLER_9_416
*792 FILLER_9_422
*793 FILLER_9_426
*794 FILLER_9_66
*795 FILLER_9_72
*796 PHY_EDGE_ROW_0_Left_16
*797 PHY_EDGE_ROW_0_Right_0
*798 PHY_EDGE_ROW_10_Left_26
*799 PHY_EDGE_ROW_10_Right_10
*800 PHY_EDGE_ROW_11_Left_27
*801 PHY_EDGE_ROW_11_Right_11
*802 PHY_EDGE_ROW_12_Left_28
*803 PHY_EDGE_ROW_12_Right_12
*804 PHY_EDGE_ROW_13_Left_29
*805 PHY_EDGE_ROW_13_Right_13
*806 PHY_EDGE_ROW_14_Left_30
*807 PHY_EDGE_ROW_14_Right_14
*808 PHY_EDGE_ROW_15_Left_31
*809 PHY_EDGE_ROW_15_Right_15
*810 PHY_EDGE_ROW_1_Left_17
*811 PHY_EDGE_ROW_1_Right_1
*812 PHY_EDGE_ROW_2_Left_18
*813 PHY_EDGE_ROW_2_Right_2
*814 PHY_EDGE_ROW_3_Left_19
*815 PHY_EDGE_ROW_3_Right_3
*816 PHY_EDGE_ROW_4_Left_20
*817 PHY_EDGE_ROW_4_Right_4
*818 PHY_EDGE_ROW_5_Left_21
*819 PHY_EDGE_ROW_5_Right_5
*820 PHY_EDGE_ROW_6_Left_22
*821 PHY_EDGE_ROW_6_Right_6
*822 PHY_EDGE_ROW_7_Left_23
*823 PHY_EDGE_ROW_7_Right_7
*824 PHY_EDGE_ROW_8_Left_24
*825 PHY_EDGE_ROW_8_Right_8
*826 PHY_EDGE_ROW_9_Left_25
*827 PHY_EDGE_ROW_9_Right_9
*828 TAP_TAPCELL_ROW_0_32
*829 TAP_TAPCELL_ROW_0_33
*830 TAP_TAPCELL_ROW_0_34
*831 TAP_TAPCELL_ROW_0_35
*832 TAP_TAPCELL_ROW_0_36
*833 TAP_TAPCELL_ROW_0_37
*834 TAP_TAPCELL_ROW_0_38
*835 TAP_TAPCELL_ROW_0_39
*836 TAP_TAPCELL_ROW_0_40
*837 TAP_TAPCELL_ROW_0_41
*838 TAP_TAPCELL_ROW_0_42
*839 TAP_TAPCELL_ROW_0_43
*840 TAP_TAPCELL_ROW_0_44
*841 TAP_TAPCELL_ROW_10_103
*842 TAP_TAPCELL_ROW_10_104
*843 TAP_TAPCELL_ROW_10_105
*844 TAP_TAPCELL_ROW_10_106
*845 TAP_TAPCELL_ROW_10_107
*846 TAP_TAPCELL_ROW_10_108
*847 TAP_TAPCELL_ROW_10_109
*848 TAP_TAPCELL_ROW_11_110
*849 TAP_TAPCELL_ROW_11_111
*850 TAP_TAPCELL_ROW_11_112
*851 TAP_TAPCELL_ROW_11_113
*852 TAP_TAPCELL_ROW_11_114
*853 TAP_TAPCELL_ROW_11_115
*854 TAP_TAPCELL_ROW_12_116
*855 TAP_TAPCELL_ROW_12_117
*856 TAP_TAPCELL_ROW_12_118
*857 TAP_TAPCELL_ROW_12_119
*858 TAP_TAPCELL_ROW_12_120
*859 TAP_TAPCELL_ROW_12_121
*860 TAP_TAPCELL_ROW_12_122
*861 TAP_TAPCELL_ROW_13_123
*862 TAP_TAPCELL_ROW_13_124
*863 TAP_TAPCELL_ROW_13_125
*864 TAP_TAPCELL_ROW_13_126
*865 TAP_TAPCELL_ROW_13_127
*866 TAP_TAPCELL_ROW_13_128
*867 TAP_TAPCELL_ROW_14_129
*868 TAP_TAPCELL_ROW_14_130
*869 TAP_TAPCELL_ROW_14_131
*870 TAP_TAPCELL_ROW_14_132
*871 TAP_TAPCELL_ROW_14_133
*872 TAP_TAPCELL_ROW_14_134
*873 TAP_TAPCELL_ROW_14_135
*874 TAP_TAPCELL_ROW_15_136
*875 TAP_TAPCELL_ROW_15_137
*876 TAP_TAPCELL_ROW_15_138
*877 TAP_TAPCELL_ROW_15_139
*878 TAP_TAPCELL_ROW_15_140
*879 TAP_TAPCELL_ROW_15_141
*880 TAP_TAPCELL_ROW_15_142
*881 TAP_TAPCELL_ROW_15_143
*882 TAP_TAPCELL_ROW_15_144
*883 TAP_TAPCELL_ROW_15_145
*884 TAP_TAPCELL_ROW_15_146
*885 TAP_TAPCELL_ROW_15_147
*886 TAP_TAPCELL_ROW_15_148
*887 TAP_TAPCELL_ROW_1_45
*888 TAP_TAPCELL_ROW_1_46
*889 TAP_TAPCELL_ROW_1_47
*890 TAP_TAPCELL_ROW_1_48
*891 TAP_TAPCELL_ROW_1_49
*892 TAP_TAPCELL_ROW_1_50
*893 TAP_TAPCELL_ROW_2_51
*894 TAP_TAPCELL_ROW_2_52
*895 TAP_TAPCELL_ROW_2_53
*896 TAP_TAPCELL_ROW_2_54
*897 TAP_TAPCELL_ROW_2_55
*898 TAP_TAPCELL_ROW_2_56
*899 TAP_TAPCELL_ROW_2_57
*900 TAP_TAPCELL_ROW_3_58
*901 TAP_TAPCELL_ROW_3_59
*902 TAP_TAPCELL_ROW_3_60
*903 TAP_TAPCELL_ROW_3_61
*904 TAP_TAPCELL_ROW_3_62
*905 TAP_TAPCELL_ROW_3_63
*906 TAP_TAPCELL_ROW_4_64
*907 TAP_TAPCELL_ROW_4_65
*908 TAP_TAPCELL_ROW_4_66
*909 TAP_TAPCELL_ROW_4_67
*910 TAP_TAPCELL_ROW_4_68
*911 TAP_TAPCELL_ROW_4_69
*912 TAP_TAPCELL_ROW_4_70
*913 TAP_TAPCELL_ROW_5_71
*914 TAP_TAPCELL_ROW_5_72
*915 TAP_TAPCELL_ROW_5_73
*916 TAP_TAPCELL_ROW_5_74
*917 TAP_TAPCELL_ROW_5_75
*918 TAP_TAPCELL_ROW_5_76
*919 TAP_TAPCELL_ROW_6_77
*920 TAP_TAPCELL_ROW_6_78
*921 TAP_TAPCELL_ROW_6_79
*922 TAP_TAPCELL_ROW_6_80
*923 TAP_TAPCELL_ROW_6_81
*924 TAP_TAPCELL_ROW_6_82
*925 TAP_TAPCELL_ROW_6_83
*926 TAP_TAPCELL_ROW_7_84
*927 TAP_TAPCELL_ROW_7_85
*928 TAP_TAPCELL_ROW_7_86
*929 TAP_TAPCELL_ROW_7_87
*930 TAP_TAPCELL_ROW_7_88
*931 TAP_TAPCELL_ROW_7_89
*932 TAP_TAPCELL_ROW_8_90
*933 TAP_TAPCELL_ROW_8_91
*934 TAP_TAPCELL_ROW_8_92
*935 TAP_TAPCELL_ROW_8_93
*936 TAP_TAPCELL_ROW_8_94
*937 TAP_TAPCELL_ROW_8_95
*938 TAP_TAPCELL_ROW_8_96
*939 TAP_TAPCELL_ROW_9_100
*940 TAP_TAPCELL_ROW_9_101
*941 TAP_TAPCELL_ROW_9_102
*942 TAP_TAPCELL_ROW_9_97
*943 TAP_TAPCELL_ROW_9_98
*944 TAP_TAPCELL_ROW_9_99
*945 _000_
*946 _001_
*947 _002_
*948 _003_
*949 _004_
*950 _005_
*951 _006_
*952 _007_
*953 _008_
*954 _009_
*955 _010_
*956 _011_
*957 _012_
*958 _013_
*959 _014_
*960 _015_
*961 _016_
*962 _017_
*963 _018_
*964 _019_
*965 _020_
*966 _021_
*967 _022_
*968 _023_
*969 _024_
*970 _025_
*971 _026_
*972 _027_
*973 _028_
*974 _029_
*975 _030_
*976 _031_
*977 _032_
*978 _033_
*979 _034_
*980 _035_
*981 _036_
*982 _037_
*983 _038_
*984 _039_
*985 _040_
*986 _041_
*987 _042_
*988 _043_
*989 _044_
*990 _045_
*991 _046_
*992 _047_
*993 _048_
*994 _049_
*995 _050_
*996 _051_
*997 _052_
*998 _053_
*999 _054_
*1000 _055_
*1001 _056_
*1002 _057_
*1003 _058_
*1004 _059_
*1005 _060_
*1006 _061_
*1007 _062_
*1008 _063_
*1009 _064_
*1010 _065_
*1011 _066_
*1012 _067_
*1013 _068_
*1014 _069_
*1015 _070_
*1016 _071_
*1017 _072_
*1018 _073_
*1019 _074_
*1020 _075_
*1021 _076_
*1022 _077_
*1023 _078_
*1024 _079_
*1025 _080_
*1026 _081_
*1027 _082_
*1028 _083_
*1029 _084_
*1030 _085_
*1031 _086_
*1032 _087_
*1033 _088_
*1034 _089_
*1035 _090_
*1036 _091_
*1037 _092_
*1038 _093_
*1039 _094_
*1040 _095_
*1041 _096_
*1042 _097_
*1043 _098_
*1044 _099_
*1045 _100_
*1046 _101_
*1047 _102_
*1048 _103_
*1049 _104_
*1050 output1
*1051 output10
*1052 output100
*1053 output101
*1054 output102
*1055 output103
*1056 output104
*1057 output105
*1058 output11
*1059 output12
*1060 output13
*1061 output14
*1062 output15
*1063 output16
*1064 output17
*1065 output18
*1066 output19
*1067 output2
*1068 output20
*1069 output21
*1070 output22
*1071 output23
*1072 output24
*1073 output25
*1074 output26
*1075 output27
*1076 output28
*1077 output29
*1078 output3
*1079 output30
*1080 output31
*1081 output32
*1082 output33
*1083 output34
*1084 output35
*1085 output36
*1086 output37
*1087 output38
*1088 output39
*1089 output4
*1090 output40
*1091 output41
*1092 output42
*1093 output43
*1094 output44
*1095 output45
*1096 output46
*1097 output47
*1098 output48
*1099 output49
*1100 output5
*1101 output50
*1102 output51
*1103 output52
*1104 output53
*1105 output54
*1106 output55
*1107 output56
*1108 output57
*1109 output58
*1110 output59
*1111 output6
*1112 output60
*1113 output61
*1114 output62
*1115 output63
*1116 output64
*1117 output65
*1118 output66
*1119 output67
*1120 output68
*1121 output69
*1122 output7
*1123 output70
*1124 output71
*1125 output72
*1126 output73
*1127 output74
*1128 output75
*1129 output76
*1130 output77
*1131 output78
*1132 output79
*1133 output8
*1134 output80
*1135 output81
*1136 output82
*1137 output83
*1138 output84
*1139 output85
*1140 output86
*1141 output87
*1142 output88
*1143 output89
*1144 output9
*1145 output90
*1146 output91
*1147 output92
*1148 output93
*1149 output94
*1150 output95
*1151 output96
*1152 output97
*1153 output98
*1154 output99

*PORTS
FrameData[0] I
FrameData[10] I
FrameData[11] I
FrameData[12] I
FrameData[13] I
FrameData[14] I
FrameData[15] I
FrameData[16] I
FrameData[17] I
FrameData[18] I
FrameData[19] I
FrameData[1] I
FrameData[20] I
FrameData[21] I
FrameData[22] I
FrameData[23] I
FrameData[24] I
FrameData[25] I
FrameData[26] I
FrameData[27] I
FrameData[28] I
FrameData[29] I
FrameData[2] I
FrameData[30] I
FrameData[31] I
FrameData[3] I
FrameData[4] I
FrameData[5] I
FrameData[6] I
FrameData[7] I
FrameData[8] I
FrameData[9] I
FrameData_O[0] O
FrameData_O[10] O
FrameData_O[11] O
FrameData_O[12] O
FrameData_O[13] O
FrameData_O[14] O
FrameData_O[15] O
FrameData_O[16] O
FrameData_O[17] O
FrameData_O[18] O
FrameData_O[19] O
FrameData_O[1] O
FrameData_O[20] O
FrameData_O[21] O
FrameData_O[22] O
FrameData_O[23] O
FrameData_O[24] O
FrameData_O[25] O
FrameData_O[26] O
FrameData_O[27] O
FrameData_O[28] O
FrameData_O[29] O
FrameData_O[2] O
FrameData_O[30] O
FrameData_O[31] O
FrameData_O[3] O
FrameData_O[4] O
FrameData_O[5] O
FrameData_O[6] O
FrameData_O[7] O
FrameData_O[8] O
FrameData_O[9] O
FrameStrobe[0] I
FrameStrobe[10] I
FrameStrobe[11] I
FrameStrobe[12] I
FrameStrobe[13] I
FrameStrobe[14] I
FrameStrobe[15] I
FrameStrobe[16] I
FrameStrobe[17] I
FrameStrobe[18] I
FrameStrobe[19] I
FrameStrobe[1] I
FrameStrobe[2] I
FrameStrobe[3] I
FrameStrobe[4] I
FrameStrobe[5] I
FrameStrobe[6] I
FrameStrobe[7] I
FrameStrobe[8] I
FrameStrobe[9] I
FrameStrobe_O[0] O
FrameStrobe_O[10] O
FrameStrobe_O[11] O
FrameStrobe_O[12] O
FrameStrobe_O[13] O
FrameStrobe_O[14] O
FrameStrobe_O[15] O
FrameStrobe_O[16] O
FrameStrobe_O[17] O
FrameStrobe_O[18] O
FrameStrobe_O[19] O
FrameStrobe_O[1] O
FrameStrobe_O[2] O
FrameStrobe_O[3] O
FrameStrobe_O[4] O
FrameStrobe_O[5] O
FrameStrobe_O[6] O
FrameStrobe_O[7] O
FrameStrobe_O[8] O
FrameStrobe_O[9] O
N1END[0] I
N1END[1] I
N1END[2] I
N1END[3] I
N2END[0] I
N2END[1] I
N2END[2] I
N2END[3] I
N2END[4] I
N2END[5] I
N2END[6] I
N2END[7] I
N2MID[0] I
N2MID[1] I
N2MID[2] I
N2MID[3] I
N2MID[4] I
N2MID[5] I
N2MID[6] I
N2MID[7] I
N4END[0] I
N4END[10] I
N4END[11] I
N4END[12] I
N4END[13] I
N4END[14] I
N4END[15] I
N4END[1] I
N4END[2] I
N4END[3] I
N4END[4] I
N4END[5] I
N4END[6] I
N4END[7] I
N4END[8] I
N4END[9] I
NN4END[0] I
NN4END[10] I
NN4END[11] I
NN4END[12] I
NN4END[13] I
NN4END[14] I
NN4END[15] I
NN4END[1] I
NN4END[2] I
NN4END[3] I
NN4END[4] I
NN4END[5] I
NN4END[6] I
NN4END[7] I
NN4END[8] I
NN4END[9] I
S1BEG[0] O
S1BEG[1] O
S1BEG[2] O
S1BEG[3] O
S2BEG[0] O
S2BEG[1] O
S2BEG[2] O
S2BEG[3] O
S2BEG[4] O
S2BEG[5] O
S2BEG[6] O
S2BEG[7] O
S2BEGb[0] O
S2BEGb[1] O
S2BEGb[2] O
S2BEGb[3] O
S2BEGb[4] O
S2BEGb[5] O
S2BEGb[6] O
S2BEGb[7] O
S4BEG[0] O
S4BEG[10] O
S4BEG[11] O
S4BEG[12] O
S4BEG[13] O
S4BEG[14] O
S4BEG[15] O
S4BEG[1] O
S4BEG[2] O
S4BEG[3] O
S4BEG[4] O
S4BEG[5] O
S4BEG[6] O
S4BEG[7] O
S4BEG[8] O
S4BEG[9] O
SS4BEG[0] O
SS4BEG[10] O
SS4BEG[11] O
SS4BEG[12] O
SS4BEG[13] O
SS4BEG[14] O
SS4BEG[15] O
SS4BEG[1] O
SS4BEG[2] O
SS4BEG[3] O
SS4BEG[4] O
SS4BEG[5] O
SS4BEG[6] O
SS4BEG[7] O
SS4BEG[8] O
SS4BEG[9] O
UserCLK I
UserCLKo O

*D_NET *1 0.00848733
*CONN
*P FrameData[0] I
*I *945:I I *D gf180mcu_fd_sc_mcu7t5v0__buf_2
*CAP
1 FrameData[0] 0.00158376
2 *945:I 0.00158376
3 *945:I *946:I 0.000330988
4 *945:I *997:I 0.000809147
5 *945:I *998:I 4.4998e-05
6 *945:I *1000:I 0.00413467
*RES
1 FrameData[0] *945:I 25.834 
*END

*D_NET *2 0.0481094
*CONN
*P FrameData[10] I
*I *955:I I *D gf180mcu_fd_sc_mcu7t5v0__buf_2
*CAP
1 FrameData[10] 0.00131906
2 *955:I 0
3 *2:67 0.00240886
4 *2:49 0.00418651
5 *2:19 0.00309671
6 *2:19 *954:I 0.000262278
7 *2:19 *963:I 0.000104697
8 *2:19 *966:I 0
9 *2:19 *1007:I 0.00137423
10 *2:19 *3:19 0.000712755
11 *2:19 *13:21 0.00132454
12 *2:19 *20:21 0.00278945
13 *2:19 *23:23 0.000451288
14 *2:19 *30:23 0.000431535
15 *2:19 *106:21 0.000144887
16 *2:19 *135:25 0
17 *2:19 *214:12 0.00516984
18 *2:19 *244:22 0.00062586
19 *2:19 *269:20 3.16675e-05
20 *2:19 *270:16 0.000519604
21 *2:49 *980:I 0.00103332
22 *2:49 *982:I 0.000229621
23 *2:49 *988:I 0.000377031
24 *2:49 *1017:I 0.00230948
25 *2:49 *1018:I 0.000408758
26 *2:49 *1102:I 3.08902e-05
27 *2:49 *1119:I 0.000267581
28 *2:49 *19:13 6.95292e-05
29 *2:49 *20:21 0.000204512
30 *2:49 *20:43 0.000532543
31 *2:49 *21:33 0.000308974
32 *2:49 *26:41 0.000991439
33 *2:49 *28:53 0.000394905
34 *2:49 *31:35 0.000162113
35 *2:49 *77:25 0.000120879
36 *2:49 *83:25 0.00107667
37 *2:49 *126:19 0.000542337
38 *2:49 *135:25 0.000428174
39 *2:49 *214:12 0
40 *2:49 *238:40 0.000882388
41 *2:49 *257:16 0.00136986
42 *2:49 *262:20 0.000341894
43 *2:49 *263:66 0.000989698
44 *2:49 *285:10 0.0010437
45 *2:49 *303:24 0.00106825
46 *2:67 *952:I 0.00117128
47 *2:67 *994:I 0.00114109
48 *2:67 *996:I 0.000423007
49 *2:67 *1030:I 4.77227e-05
50 *2:67 *1044:I 0.000855863
51 *2:67 *1045:I 4.27914e-05
52 *2:67 *1048:I 0.000206556
53 *2:67 *1065:I 4.9412e-05
54 *2:67 *1072:I 1.11891e-05
55 *2:67 *1081:I 0.000422028
56 *2:67 *1090:I 9.15568e-05
57 *2:67 *21:33 0.00253711
58 *2:67 *23:53 0.000971515
*RES
1 FrameData[10] *2:19 47.298 
2 *2:19 *2:49 49.996 
3 *2:49 *2:67 49.86 
4 *2:67 *955:I 4.5 
*END

*D_NET *3 0.0570962
*CONN
*P FrameData[11] I
*I *956:I I *D gf180mcu_fd_sc_mcu7t5v0__buf_2
*CAP
1 FrameData[11] 0.00104868
2 *956:I 0.000508267
3 *3:55 0.00158084
4 *3:37 0.00223382
5 *3:19 0.00220993
6 *956:I FrameData_O[2] 0.000679172
7 *956:I FrameData_O[3] 0.000239414
8 *956:I SS4BEG[14] 0.00299766
9 *956:I SS4BEG[1] 0.000190317
10 *956:I *988:I 0.000370609
11 *956:I *995:I 0.00316354
12 *956:I *996:I 0.000207492
13 *956:I *1050:I 0.000833286
14 *956:I *1076:I 0
15 *956:I *1149:I 0.0032362
16 *956:I *78:23 0.000553181
17 *956:I *148:37 0.000275342
18 *3:19 *997:I 1.19129e-05
19 *3:19 *1008:I 0.00056918
20 *3:19 *4:21 0.000498787
21 *3:19 *13:21 0.00032776
22 *3:19 *17:21 0.00149821
23 *3:19 *28:25 6.32238e-05
24 *3:19 *31:23 0.00137683
25 *3:19 *220:44 0.00153938
26 *3:19 *244:22 0.000110228
27 *3:19 *269:20 0.000999188
28 *3:19 *278:18 0.000870799
29 *3:19 *279:14 0.000115237
30 *3:19 *285:10 0.000322519
31 *3:37 *968:I 0.000382751
32 *3:37 *11:39 0.00214489
33 *3:37 *22:21 0.00496294
34 *3:37 *28:53 0.00360416
35 *3:37 *77:25 4.47078e-05
36 *3:37 *133:31 0.000118534
37 *3:37 *135:25 0
38 *3:37 *214:18 0.00351018
39 *3:37 *220:24 0.000645071
40 *3:37 *224:14 0.000604759
41 *3:37 *226:10 0.0015455
42 *3:37 *303:24 0.000112634
43 *3:55 SS4BEG[15] 0.000184871
44 *3:55 *978:I 0.00258993
45 *3:55 *1021:I 0.000165295
46 *3:55 *1028:I 0.000378609
47 *3:55 *1030:I 1.22234e-05
48 *3:55 *1032:I 0.000192794
49 *3:55 *1046:I 0.00184822
50 *3:55 *1049:I 0.00262857
51 *3:55 *1054:I 4.48125e-05
52 *3:55 *1129:I 0.000680763
53 *3:55 *1134:I 0.000146394
54 *3:55 *1135:I 0.000351422
55 *3:55 *9:43 0.000419525
56 *3:55 *29:35 2.55122e-05
57 *3:55 *150:19 0.000197256
58 *3:55 *222:16 0.000210069
59 *2:19 *3:19 0.000712755
*RES
1 FrameData[11] *3:19 37.114 
2 *3:19 *3:37 49.996 
3 *3:37 *3:55 36.164 
4 *3:55 *956:I 29.444 
*END

*D_NET *4 0.0525226
*CONN
*P FrameData[12] I
*I *957:I I *D gf180mcu_fd_sc_mcu7t5v0__buf_2
*CAP
1 FrameData[12] 0.00266967
2 *957:I 0.00163485
3 *4:51 0.00295817
4 *4:21 0.00399298
5 *957:I *962:I 8.4819e-05
6 *957:I *965:I 0.00701643
7 *957:I *971:I 0.00149081
8 *957:I *972:I 0.00152462
9 *957:I *1060:I 0.00165824
10 *957:I *1069:I 4.58601e-06
11 *957:I *151:21 0.000668709
12 *957:I *224:14 0.000184374
13 *4:21 *946:I 0.000788325
14 *4:21 *954:I 3.95152e-05
15 *4:21 *958:I 0.000469669
16 *4:21 *997:I 0.00209134
17 *4:21 *1000:I 0
18 *4:21 *1007:I 0
19 *4:21 *1023:I 0.000108808
20 *4:21 *1025:I 0.000456749
21 *4:21 *1026:I 0.000158213
22 *4:21 *1105:I 0.00590326
23 *4:21 *1142:I 0.000186302
24 *4:21 *23:23 0
25 *4:21 *26:23 0.000355826
26 *4:21 *125:33 0.00091379
27 *4:21 *277:18 0.000863694
28 *4:21 *290:36 1.65795e-06
29 *4:21 *304:26 0.00037722
30 *4:51 S1BEG[2] 0.000104117
31 *4:51 *1020:I 0.00188045
32 *4:51 *1029:I 7.6393e-05
33 *4:51 *1046:I 0.000432183
34 *4:51 *1113:I 0.00048376
35 *4:51 *1125:I 0
36 *4:51 *1137:I 4.93216e-05
37 *4:51 *1142:I 0.00301014
38 *4:51 *23:39 6.54493e-05
39 *4:51 *28:73 0.000946756
40 *4:51 *30:41 0.000375141
41 *4:51 *132:25 0.00255015
42 *4:51 *141:19 0.00139269
43 *4:51 *228:32 0.00103293
44 *4:51 *238:40 0.00139505
45 *4:51 *287:30 0.00121301
46 *4:51 *288:26 0.000413652
47 *3:19 *4:21 0.000498787
*RES
1 FrameData[12] *4:21 49.182 
2 *4:21 *4:51 48.948 
3 *4:51 *957:I 35.904 
*END

*D_NET *5 0.00503915
*CONN
*P FrameData[13] I
*I *958:I I *D gf180mcu_fd_sc_mcu7t5v0__buf_2
*CAP
1 FrameData[13] 0.00121983
2 *958:I 0.00121983
3 *958:I *959:I 0.000237572
4 *958:I *997:I 0.00052949
5 *958:I *244:22 0
6 *958:I *263:24 0
7 *958:I *267:16 0.00136275
8 *4:21 *958:I 0.000469669
*RES
1 FrameData[13] *958:I 20.134 
*END

*D_NET *6 0.00319799
*CONN
*P FrameData[14] I
*I *959:I I *D gf180mcu_fd_sc_mcu7t5v0__buf_2
*CAP
1 FrameData[14] 0.000678515
2 *959:I 0.000678515
3 *959:I *960:I 0.000432595
4 *959:I *28:25 3.83835e-06
5 *959:I *267:16 0.00116696
6 *959:I *269:20 0
7 *958:I *959:I 0.000237572
*RES
1 FrameData[14] *959:I 16.714 
*END

*D_NET *7 0.00368618
*CONN
*P FrameData[15] I
*I *960:I I *D gf180mcu_fd_sc_mcu7t5v0__buf_2
*CAP
1 FrameData[15] 0.000936812
2 *960:I 0.000936812
3 *960:I *961:I 0.000230065
4 *960:I *269:20 0.00109566
5 *960:I *285:8 5.42348e-05
6 *959:I *960:I 0.000432595
*RES
1 FrameData[15] *960:I 17.17 
*END

*D_NET *8 0.00431559
*CONN
*P FrameData[16] I
*I *961:I I *D gf180mcu_fd_sc_mcu7t5v0__buf_2
*CAP