*SPEF "ieee 1481-1999"
*DESIGN "S_term_SRAM"
*DATE "11:08:39 Friday November 28, 2025"
*VENDOR "The OpenROAD Project"
*PROGRAM "OpenROAD"
*VERSION "341650e72dad0dc8571822ff8c5d9c5e365327f7"
*DESIGN_FLOW "NAME_SCOPE LOCAL" "PIN_CAP NONE"
*DIVIDER /
*DELIMITER :
*BUS_DELIMITER []
*T_UNIT 1 NS
*C_UNIT 1 PF
*R_UNIT 1 OHM
*L_UNIT 1 HENRY

*NAME_MAP
*1 FrameData[0]
*2 FrameData[10]
*3 FrameData[11]
*4 FrameData[12]
*5 FrameData[13]
*6 FrameData[14]
*7 FrameData[15]
*8 FrameData[16]
*9 FrameData[17]
*10 FrameData[18]
*11 FrameData[19]
*12 FrameData[1]
*13 FrameData[20]
*14 FrameData[21]
*15 FrameData[22]
*16 FrameData[23]
*17 FrameData[24]
*18 FrameData[25]
*19 FrameData[26]
*20 FrameData[27]
*21 FrameData[28]
*22 FrameData[29]
*23 FrameData[2]
*24 FrameData[30]
*25 FrameData[31]
*26 FrameData[3]
*27 FrameData[4]
*28 FrameData[5]
*29 FrameData[6]
*30 FrameData[7]
*31 FrameData[8]
*32 FrameData[9]
*33 FrameData_O[0]
*34 FrameData_O[10]
*35 FrameData_O[11]
*36 FrameData_O[12]
*37 FrameData_O[13]
*38 FrameData_O[14]
*39 FrameData_O[15]
*40 FrameData_O[16]
*41 FrameData_O[17]
*42 FrameData_O[18]
*43 FrameData_O[19]
*44 FrameData_O[1]
*45 FrameData_O[20]
*46 FrameData_O[21]
*47 FrameData_O[22]
*48 FrameData_O[23]
*49 FrameData_O[24]
*50 FrameData_O[25]
*51 FrameData_O[26]
*52 FrameData_O[27]
*53 FrameData_O[28]
*54 FrameData_O[29]
*55 FrameData_O[2]
*56 FrameData_O[30]
*57 FrameData_O[31]
*58 FrameData_O[3]
*59 FrameData_O[4]
*60 FrameData_O[5]
*61 FrameData_O[6]
*62 FrameData_O[7]
*63 FrameData_O[8]
*64 FrameData_O[9]
*65 FrameStrobe[0]
*66 FrameStrobe[10]
*67 FrameStrobe[11]
*68 FrameStrobe[12]
*69 FrameStrobe[13]
*70 FrameStrobe[14]
*71 FrameStrobe[15]
*72 FrameStrobe[16]
*73 FrameStrobe[17]
*74 FrameStrobe[18]
*75 FrameStrobe[19]
*76 FrameStrobe[1]
*77 FrameStrobe[2]
*78 FrameStrobe[3]
*79 FrameStrobe[4]
*80 FrameStrobe[5]
*81 FrameStrobe[6]
*82 FrameStrobe[7]
*83 FrameStrobe[8]
*84 FrameStrobe[9]
*85 FrameStrobe_O[0]
*86 FrameStrobe_O[10]
*87 FrameStrobe_O[11]
*88 FrameStrobe_O[12]
*89 FrameStrobe_O[13]
*90 FrameStrobe_O[14]
*91 FrameStrobe_O[15]
*92 FrameStrobe_O[16]
*93 FrameStrobe_O[17]
*94 FrameStrobe_O[18]
*95 FrameStrobe_O[19]
*96 FrameStrobe_O[1]
*97 FrameStrobe_O[2]
*98 FrameStrobe_O[3]
*99 FrameStrobe_O[4]
*100 FrameStrobe_O[5]
*101 FrameStrobe_O[6]
*102 FrameStrobe_O[7]
*103 FrameStrobe_O[8]
*104 FrameStrobe_O[9]
*105 N1BEG[0]
*106 N1BEG[1]
*107 N1BEG[2]
*108 N1BEG[3]
*109 N2BEG[0]
*110 N2BEG[1]
*111 N2BEG[2]
*112 N2BEG[3]
*113 N2BEG[4]
*114 N2BEG[5]
*115 N2BEG[6]
*116 N2BEG[7]
*117 N2BEGb[0]
*118 N2BEGb[1]
*119 N2BEGb[2]
*120 N2BEGb[3]
*121 N2BEGb[4]
*122 N2BEGb[5]
*123 N2BEGb[6]
*124 N2BEGb[7]
*125 N4BEG[0]
*126 N4BEG[10]
*127 N4BEG[11]
*128 N4BEG[12]
*129 N4BEG[13]
*130 N4BEG[14]
*131 N4BEG[15]
*132 N4BEG[1]
*133 N4BEG[2]
*134 N4BEG[3]
*135 N4BEG[4]
*136 N4BEG[5]
*137 N4BEG[6]
*138 N4BEG[7]
*139 N4BEG[8]
*140 N4BEG[9]
*141 S1END[0]
*142 S1END[1]
*143 S1END[2]
*144 S1END[3]
*145 S2END[0]
*146 S2END[1]
*147 S2END[2]
*148 S2END[3]
*149 S2END[4]
*150 S2END[5]
*151 S2END[6]
*152 S2END[7]
*153 S2MID[0]
*154 S2MID[1]
*155 S2MID[2]
*156 S2MID[3]
*157 S2MID[4]
*158 S2MID[5]
*159 S2MID[6]
*160 S2MID[7]
*161 S4END[0]
*162 S4END[10]
*163 S4END[11]
*164 S4END[12]
*165 S4END[13]
*166 S4END[14]
*167 S4END[15]
*168 S4END[1]
*169 S4END[2]
*170 S4END[3]
*171 S4END[4]
*172 S4END[5]
*173 S4END[6]
*174 S4END[7]
*175 S4END[8]
*176 S4END[9]
*177 UserCLK
*178 UserCLKo
*181 net1
*182 net10
*183 net11
*184 net12
*185 net13
*186 net14
*187 net15
*188 net16
*189 net17
*190 net18
*191 net19
*192 net2
*193 net20
*194 net21
*195 net22
*196 net23
*197 net24
*198 net25
*199 net26
*200 net27
*201 net28
*202 net29
*203 net3
*204 net30
*205 net31
*206 net32
*207 net33
*208 net34
*209 net35
*210 net36
*211 net37
*212 net38
*213 net39
*214 net4
*215 net40
*216 net41
*217 net42
*218 net43
*219 net44
*220 net45
*221 net46
*222 net47
*223 net48
*224 net49
*225 net5
*226 net50
*227 net51
*228 net52
*229 net53
*230 net54
*231 net55
*232 net56
*233 net57
*234 net58
*235 net59
*236 net6
*237 net60
*238 net61
*239 net62
*240 net63
*241 net64
*242 net65
*243 net66
*244 net67
*245 net68
*246 net69
*247 net7
*248 net70
*249 net71
*250 net72
*251 net73
*252 net74
*253 net75
*254 net76
*255 net77
*256 net78
*257 net79
*258 net8
*259 net80
*260 net81
*261 net82
*262 net83
*263 net84
*264 net85
*265 net86
*266 net87
*267 net88
*268 net89
*269 net9
*270 FILLER_0_101
*271 FILLER_0_104
*272 FILLER_0_113
*273 FILLER_0_121
*274 FILLER_0_125
*275 FILLER_0_127
*276 FILLER_0_146
*277 FILLER_0_150
*278 FILLER_0_160
*279 FILLER_0_168
*280 FILLER_0_178
*281 FILLER_0_180
*282 FILLER_0_189
*283 FILLER_0_193
*284 FILLER_0_195
*285 FILLER_0_2
*286 FILLER_0_206
*287 FILLER_0_240
*288 FILLER_0_36
*289 FILLER_0_70
*290 FILLER_0_86
*291 FILLER_0_90
*292 FILLER_0_99
*293 FILLER_10_103
*294 FILLER_10_107
*295 FILLER_10_123
*296 FILLER_10_127
*297 FILLER_10_136
*298 FILLER_10_138
*299 FILLER_10_147
*300 FILLER_10_163
*301 FILLER_10_171
*302 FILLER_10_177
*303 FILLER_10_18
*304 FILLER_10_193
*305 FILLER_10_197
*306 FILLER_10_2
*307 FILLER_10_214
*308 FILLER_10_216
*309 FILLER_10_34
*310 FILLER_10_37
*311 FILLER_11_105
*312 FILLER_11_107
*313 FILLER_11_124
*314 FILLER_11_142
*315 FILLER_11_174
*316 FILLER_11_178
*317 FILLER_11_18
*318 FILLER_11_180
*319 FILLER_11_189
*320 FILLER_11_2
*321 FILLER_11_207
*322 FILLER_11_209
*323 FILLER_11_240
*324 FILLER_11_26
*325 FILLER_11_72
*326 FILLER_11_76
*327 FILLER_12_129
*328 FILLER_12_146
*329 FILLER_12_166
*330 FILLER_12_18
*331 FILLER_12_2
*332 FILLER_12_20
*333 FILLER_12_241
*334 FILLER_12_37
*335 FILLER_13_123
*336 FILLER_13_127
*337 FILLER_13_137
*338 FILLER_13_139
*339 FILLER_13_142
*340 FILLER_13_158
*341 FILLER_13_166
*342 FILLER_13_18
*343 FILLER_13_183
*344 FILLER_13_192
*345 FILLER_13_194
*346 FILLER_13_2
*347 FILLER_13_209
*348 FILLER_13_254
*349 FILLER_13_72
*350 FILLER_14_107
*351 FILLER_14_165
*352 FILLER_14_18
*353 FILLER_14_2
*354 FILLER_14_20
*355 FILLER_14_241
*356 FILLER_14_37
*357 FILLER_15_104
*358 FILLER_15_127
*359 FILLER_15_138
*360 FILLER_15_146
*361 FILLER_15_150
*362 FILLER_15_159
*363 FILLER_15_161
*364 FILLER_15_172
*365 FILLER_15_174
*366 FILLER_15_2
*367 FILLER_15_203
*368 FILLER_15_234
*369 FILLER_15_268
*370 FILLER_15_36
*371 FILLER_15_70
*372 FILLER_1_104
*373 FILLER_1_128
*374 FILLER_1_142
*375 FILLER_1_158
*376 FILLER_1_167
*377 FILLER_1_176
*378 FILLER_1_194
*379 FILLER_1_2
*380 FILLER_1_203
*381 FILLER_1_207
*382 FILLER_1_209
*383 FILLER_1_212
*384 FILLER_1_216
*385 FILLER_1_225
*386 FILLER_1_66
*387 FILLER_1_72
*388 FILLER_2_101
*389 FILLER_2_107
*390 FILLER_2_115
*391 FILLER_2_117
*392 FILLER_2_126
*393 FILLER_2_146
*394 FILLER_2_155
*395 FILLER_2_171
*396 FILLER_2_177
*397 FILLER_2_193
*398 FILLER_2_2
*399 FILLER_2_201
*400 FILLER_2_211
*401 FILLER_2_219
*402 FILLER_2_228
*403 FILLER_2_230
*404 FILLER_2_34
*405 FILLER_2_37
*406 FILLER_3_104
*407 FILLER_3_112
*408 FILLER_3_116
*409 FILLER_3_125
*410 FILLER_3_133
*411 FILLER_3_137
*412 FILLER_3_139
*413 FILLER_3_142
*414 FILLER_3_2
*415 FILLER_3_206
*416 FILLER_3_212
*417 FILLER_3_228
*418 FILLER_3_238
*419 FILLER_3_240
*420 FILLER_3_66
*421 FILLER_3_72
*422 FILLER_4_101
*423 FILLER_4_107
*424 FILLER_4_131
*425 FILLER_4_141
*426 FILLER_4_173
*427 FILLER_4_177
*428 FILLER_4_2
*429 FILLER_4_241
*430 FILLER_4_247
*431 FILLER_4_34
*432 FILLER_4_37
*433 FILLER_5_104
*434 FILLER_5_112
*435 FILLER_5_130
*436 FILLER_5_142
*437 FILLER_5_159
*438 FILLER_5_191
*439 FILLER_5_2
*440 FILLER_5_207
*441 FILLER_5_209
*442 FILLER_5_212
*443 FILLER_5_228
*444 FILLER_5_236
*445 FILLER_5_240
*446 FILLER_5_66
*447 FILLER_5_72
*448 FILLER_6_101
*449 FILLER_6_107
*450 FILLER_6_115
*451 FILLER_6_119
*452 FILLER_6_121
*453 FILLER_6_130
*454 FILLER_6_162
*455 FILLER_6_170
*456 FILLER_6_174
*457 FILLER_6_177
*458 FILLER_6_2
*459 FILLER_6_241
*460 FILLER_6_247
*461 FILLER_6_34
*462 FILLER_6_37
*463 FILLER_7_104
*464 FILLER_7_120
*465 FILLER_7_129
*466 FILLER_7_137
*467 FILLER_7_139
*468 FILLER_7_150
*469 FILLER_7_182
*470 FILLER_7_198
*471 FILLER_7_2
*472 FILLER_7_206
*473 FILLER_7_212
*474 FILLER_7_220
*475 FILLER_7_224
*476 FILLER_7_226
*477 FILLER_7_34
*478 FILLER_7_50
*479 FILLER_7_58
*480 FILLER_7_72
*481 FILLER_8_101
*482 FILLER_8_107
*483 FILLER_8_123
*484 FILLER_8_140
*485 FILLER_8_172
*486 FILLER_8_174
*487 FILLER_8_177
*488 FILLER_8_2
*489 FILLER_8_209
*490 FILLER_8_247
*491 FILLER_8_34
*492 FILLER_8_37
*493 FILLER_8_53
*494 FILLER_8_62
*495 FILLER_8_64
*496 FILLER_8_73
*497 FILLER_8_81
*498 FILLER_8_93
*499 FILLER_9_107
*500 FILLER_9_123
*501 FILLER_9_131
*502 FILLER_9_142
*503 FILLER_9_2
*504 FILLER_9_206
*505 FILLER_9_212
*506 FILLER_9_80
*507 FILLER_9_90
*508 PHY_EDGE_ROW_0_Left_16
*509 PHY_EDGE_ROW_0_Right_0
*510 PHY_EDGE_ROW_10_Left_26
*511 PHY_EDGE_ROW_10_Right_10
*512 PHY_EDGE_ROW_11_Left_27
*513 PHY_EDGE_ROW_11_Right_11
*514 PHY_EDGE_ROW_12_Left_28
*515 PHY_EDGE_ROW_12_Right_12
*516 PHY_EDGE_ROW_13_Left_29
*517 PHY_EDGE_ROW_13_Right_13
*518 PHY_EDGE_ROW_14_Left_30
*519 PHY_EDGE_ROW_14_Right_14
*520 PHY_EDGE_ROW_15_Left_31
*521 PHY_EDGE_ROW_15_Right_15
*522 PHY_EDGE_ROW_1_Left_17
*523 PHY_EDGE_ROW_1_Right_1
*524 PHY_EDGE_ROW_2_Left_18
*525 PHY_EDGE_ROW_2_Right_2
*526 PHY_EDGE_ROW_3_Left_19
*527 PHY_EDGE_ROW_3_Right_3
*528 PHY_EDGE_ROW_4_Left_20
*529 PHY_EDGE_ROW_4_Right_4
*530 PHY_EDGE_ROW_5_Left_21
*531 PHY_EDGE_ROW_5_Right_5
*532 PHY_EDGE_ROW_6_Left_22
*533 PHY_EDGE_ROW_6_Right_6
*534 PHY_EDGE_ROW_7_Left_23
*535 PHY_EDGE_ROW_7_Right_7
*536 PHY_EDGE_ROW_8_Left_24
*537 PHY_EDGE_ROW_8_Right_8
*538 PHY_EDGE_ROW_9_Left_25
*539 PHY_EDGE_ROW_9_Right_9
*540 TAP_TAPCELL_ROW_0_32
*541 TAP_TAPCELL_ROW_0_33
*542 TAP_TAPCELL_ROW_0_34
*543 TAP_TAPCELL_ROW_0_35
*544 TAP_TAPCELL_ROW_0_36
*545 TAP_TAPCELL_ROW_0_37
*546 TAP_TAPCELL_ROW_0_38
*547 TAP_TAPCELL_ROW_10_70
*548 TAP_TAPCELL_ROW_10_71
*549 TAP_TAPCELL_ROW_10_72
*550 TAP_TAPCELL_ROW_10_73
*551 TAP_TAPCELL_ROW_11_74
*552 TAP_TAPCELL_ROW_11_75
*553 TAP_TAPCELL_ROW_11_76
*554 TAP_TAPCELL_ROW_12_77
*555 TAP_TAPCELL_ROW_12_78
*556 TAP_TAPCELL_ROW_12_79
*557 TAP_TAPCELL_ROW_12_80
*558 TAP_TAPCELL_ROW_13_81
*559 TAP_TAPCELL_ROW_13_82
*560 TAP_TAPCELL_ROW_13_83
*561 TAP_TAPCELL_ROW_14_84
*562 TAP_TAPCELL_ROW_14_85
*563 TAP_TAPCELL_ROW_14_86
*564 TAP_TAPCELL_ROW_14_87
*565 TAP_TAPCELL_ROW_15_88
*566 TAP_TAPCELL_ROW_15_89
*567 TAP_TAPCELL_ROW_15_90
*568 TAP_TAPCELL_ROW_15_91
*569 TAP_TAPCELL_ROW_15_92
*570 TAP_TAPCELL_ROW_15_93
*571 TAP_TAPCELL_ROW_15_94
*572 TAP_TAPCELL_ROW_1_39
*573 TAP_TAPCELL_ROW_1_40
*574 TAP_TAPCELL_ROW_1_41
*575 TAP_TAPCELL_ROW_2_42
*576 TAP_TAPCELL_ROW_2_43
*577 TAP_TAPCELL_ROW_2_44
*578 TAP_TAPCELL_ROW_2_45
*579 TAP_TAPCELL_ROW_3_46
*580 TAP_TAPCELL_ROW_3_47
*581 TAP_TAPCELL_ROW_3_48
*582 TAP_TAPCELL_ROW_4_49
*583 TAP_TAPCELL_ROW_4_50
*584 TAP_TAPCELL_ROW_4_51
*585 TAP_TAPCELL_ROW_4_52
*586 TAP_TAPCELL_ROW_5_53
*587 TAP_TAPCELL_ROW_5_54
*588 TAP_TAPCELL_ROW_5_55
*589 TAP_TAPCELL_ROW_6_56
*590 TAP_TAPCELL_ROW_6_57
*591 TAP_TAPCELL_ROW_6_58
*592 TAP_TAPCELL_ROW_6_59
*593 TAP_TAPCELL_ROW_7_60
*594 TAP_TAPCELL_ROW_7_61
*595 TAP_TAPCELL_ROW_7_62
*596 TAP_TAPCELL_ROW_8_63
*597 TAP_TAPCELL_ROW_8_64
*598 TAP_TAPCELL_ROW_8_65
*599 TAP_TAPCELL_ROW_8_66
*600 TAP_TAPCELL_ROW_9_67
*601 TAP_TAPCELL_ROW_9_68
*602 TAP_TAPCELL_ROW_9_69
*603 _00_
*604 _01_
*605 _02_
*606 _03_
*607 _04_
*608 _05_
*609 _06_
*610 _07_
*611 _08_
*612 _09_
*613 _10_
*614 _11_
*615 _12_
*616 _13_
*617 _14_
*618 _15_
*619 _16_
*620 _17_
*621 _18_
*622 _19_
*623 _20_
*624 _21_
*625 _22_
*626 _23_
*627 _24_
*628 _25_
*629 _26_
*630 _27_
*631 _28_
*632 _29_
*633 _30_
*634 _31_
*635 _32_
*636 _33_
*637 _34_
*638 _35_
*639 _36_
*640 _37_
*641 _38_
*642 _39_
*643 _40_
*644 _41_
*645 _42_
*646 _43_
*647 _44_
*648 _45_
*649 _46_
*650 _47_
*651 _48_
*652 _49_
*653 _50_
*654 _51_
*655 _52_
*656 _53_
*657 _54_
*658 _55_
*659 _56_
*660 _57_
*661 _58_
*662 _59_
*663 _60_
*664 _61_
*665 _62_
*666 _63_
*667 _64_
*668 _65_
*669 _66_
*670 _67_
*671 _68_
*672 _69_
*673 _70_
*674 _71_
*675 _72_
*676 _73_
*677 _74_
*678 _75_
*679 _76_
*680 _77_
*681 _78_
*682 _79_
*683 _80_
*684 _81_
*685 _82_
*686 _83_
*687 _84_
*688 _85_
*689 _86_
*690 _87_
*691 _88_
*692 output1
*693 output10
*694 output11
*695 output12
*696 output13
*697 output14
*698 output15
*699 output16
*700 output17
*701 output18
*702 output19
*703 output2
*704 output20
*705 output21
*706 output22
*707 output23
*708 output24
*709 output25
*710 output26
*711 output27
*712 output28
*713 output29
*714 output3
*715 output30
*716 output31
*717 output32
*718 output33
*719 output34
*720 output35
*721 output36
*722 output37
*723 output38
*724 output39
*725 output4
*726 output40
*727 output41
*728 output42
*729 output43
*730 output44
*731 output45
*732 output46
*733 output47
*734 output48
*735 output49
*736 output5
*737 output50
*738 output51
*739 output52
*740 output53
*741 output54
*742 output55
*743 output56
*744 output57
*745 output58
*746 output59
*747 output6
*748 output60
*749 output61
*750 output62
*751 output63
*752 output64
*753 output65
*754 output66
*755 output67
*756 output68
*757 output69
*758 output7
*759 output70
*760 output71
*761 output72
*762 output73
*763 output74
*764 output75
*765 output76
*766 output77
*767 output78
*768 output79
*769 output8
*770 output80
*771 output81
*772 output82
*773 output83
*774 output84
*775 output85
*776 output86
*777 output87
*778 output88
*779 output89
*780 output9

*PORTS
FrameData[0] I
FrameData[10] I
FrameData[11] I
FrameData[12] I
FrameData[13] I
FrameData[14] I
FrameData[15] I
FrameData[16] I
FrameData[17] I
FrameData[18] I
FrameData[19] I
FrameData[1] I
FrameData[20] I
FrameData[21] I
FrameData[22] I
FrameData[23] I
FrameData[24] I
FrameData[25] I
FrameData[26] I
FrameData[27] I
FrameData[28] I
FrameData[29] I
FrameData[2] I
FrameData[30] I
FrameData[31] I
FrameData[3] I
FrameData[4] I
FrameData[5] I
FrameData[6] I
FrameData[7] I
FrameData[8] I
FrameData[9] I
FrameData_O[0] O
FrameData_O[10] O
FrameData_O[11] O
FrameData_O[12] O
FrameData_O[13] O
FrameData_O[14] O
FrameData_O[15] O
FrameData_O[16] O
FrameData_O[17] O
FrameData_O[18] O
FrameData_O[19] O
FrameData_O[1] O
FrameData_O[20] O
FrameData_O[21] O
FrameData_O[22] O
FrameData_O[23] O
FrameData_O[24] O
FrameData_O[25] O
FrameData_O[26] O
FrameData_O[27] O
FrameData_O[28] O
FrameData_O[29] O
FrameData_O[2] O
FrameData_O[30] O
FrameData_O[31] O
FrameData_O[3] O
FrameData_O[4] O
FrameData_O[5] O
FrameData_O[6] O
FrameData_O[7] O
FrameData_O[8] O
FrameData_O[9] O
FrameStrobe[0] I
FrameStrobe[10] I
FrameStrobe[11] I
FrameStrobe[12] I
FrameStrobe[13] I
FrameStrobe[14] I
FrameStrobe[15] I
FrameStrobe[16] I
FrameStrobe[17] I
FrameStrobe[18] I
FrameStrobe[19] I
FrameStrobe[1] I
FrameStrobe[2] I
FrameStrobe[3] I
FrameStrobe[4] I
FrameStrobe[5] I
FrameStrobe[6] I
FrameStrobe[7] I
FrameStrobe[8] I
FrameStrobe[9] I
FrameStrobe_O[0] O
FrameStrobe_O[10] O
FrameStrobe_O[11] O
FrameStrobe_O[12] O
FrameStrobe_O[13] O
FrameStrobe_O[14] O
FrameStrobe_O[15] O
FrameStrobe_O[16] O
FrameStrobe_O[17] O
FrameStrobe_O[18] O
FrameStrobe_O[19] O
FrameStrobe_O[1] O
FrameStrobe_O[2] O
FrameStrobe_O[3] O
FrameStrobe_O[4] O
FrameStrobe_O[5] O
FrameStrobe_O[6] O
FrameStrobe_O[7] O
FrameStrobe_O[8] O
FrameStrobe_O[9] O
N1BEG[0] O
N1BEG[1] O
N1BEG[2] O
N1BEG[3] O
N2BEG[0] O
N2BEG[1] O
N2BEG[2] O
N2BEG[3] O
N2BEG[4] O
N2BEG[5] O
N2BEG[6] O
N2BEG[7] O
N2BEGb[0] O
N2BEGb[1] O
N2BEGb[2] O
N2BEGb[3] O
N2BEGb[4] O
N2BEGb[5] O
N2BEGb[6] O
N2BEGb[7] O
N4BEG[0] O
N4BEG[10] O
N4BEG[11] O
N4BEG[12] O
N4BEG[13] O
N4BEG[14] O
N4BEG[15] O
N4BEG[1] O
N4BEG[2] O
N4BEG[3] O
N4BEG[4] O
N4BEG[5] O
N4BEG[6] O
N4BEG[7] O
N4BEG[8] O
N4BEG[9] O
S1END[0] I
S1END[1] I
S1END[2] I
S1END[3] I
S2END[0] I
S2END[1] I
S2END[2] I
S2END[3] I
S2END[4] I
S2END[5] I
S2END[6] I
S2END[7] I
S2MID[0] I
S2MID[1] I
S2MID[2] I
S2MID[3] I
S2MID[4] I
S2MID[5] I
S2MID[6] I
S2MID[7] I
S4END[0] I
S4END[10] I
S4END[11] I
S4END[12] I
S4END[13] I
S4END[14] I
S4END[15] I
S4END[1] I
S4END[2] I
S4END[3] I
S4END[4] I
S4END[5] I
S4END[6] I
S4END[7] I
S4END[8] I
S4END[9] I
UserCLK I
UserCLKo O

*D_NET *1 0.0117167
*CONN
*P FrameData[0] I
*I *603:I I *D gf180mcu_fd_sc_mcu7t5v0__buf_2
*CAP
1 FrameData[0] 0.000840425
2 *603:I 0.000840425
3 *603:I *604:I 0.00529546
4 *603:I *637:I 0.00282872
5 *603:I *643:I 0.000803352
6 *603:I *691:I 0.00110833
*RES
1 FrameData[0] *603:I 31.306 
*END

*D_NET *2 0.00783232
*CONN
*P FrameData[10] I
*I *613:I I *D gf180mcu_fd_sc_mcu7t5v0__buf_2
*CAP
1 FrameData[10] 0.00129229
2 *613:I 0.00129229
3 *613:I *612:I 0.00182075
4 *613:I *614:I 6.14852e-05
5 *613:I *716:I 0.000105545
6 *613:I *18:21 0.000121123
7 *613:I *24:13 0.00284039
8 *613:I *224:18 0.000298454
9 *613:I *226:18 0
*RES
1 FrameData[10] *613:I 31.002 
*END

*D_NET *3 0.0137201
*CONN
*P FrameData[11] I
*I *614:I I *D gf180mcu_fd_sc_mcu7t5v0__buf_2
*CAP
1 FrameData[11] 0.000629057
2 *614:I 0.000629057
3 *614:I *615:I 0.00260332
4 *614:I *703:I 0.000396904
5 *614:I *725:I 8.81341e-06
6 *614:I *736:I 0.00030014
7 *614:I *24:13 0.00906164
8 *614:I *226:18 2.96621e-05
9 *613:I *614:I 6.14852e-05
*RES
1 FrameData[11] *614:I 32.066 
*END

*D_NET *4 0.00929743
*CONN
*P FrameData[12] I
*I *615:I I *D gf180mcu_fd_sc_mcu7t5v0__buf_2
*CAP
1 FrameData[12] 0.00177773
2 *615:I 0.00177773
3 *615:I *616:I 0.00158291
4 *615:I *627:I 4.37925e-05
5 *615:I *725:I 9.54212e-05
6 *615:I *736:I 0.00102986
7 *615:I *758:I 0.000212895
8 *615:I *226:18 0.000173764
9 *614:I *615:I 0.00260332
*RES
1 FrameData[12] *615:I 34.042 
*END

*D_NET *5 0.0110362
*CONN
*P FrameData[13] I
*I *616:I I *D gf180mcu_fd_sc_mcu7t5v0__buf_2
*CAP
1 FrameData[13] 0.00112702
2 *616:I 0.00112702
3 *616:I *617:I 3.12005e-05
4 *616:I *621:I 0.000213918
5 *616:I *626:I 2.6126e-05
6 *616:I *627:I 0.00682963
7 *616:I *758:I 0
8 *616:I *20:21 9.83524e-05
9 *616:I *224:18 0
10 *616:I *227:22 0
11 *615:I *616:I 0.00158291
*RES
1 FrameData[13] *616:I 29.558 
*END

*D_NET *6 0.0143116
*CONN
*P FrameData[14] I
*I *617:I I *D gf180mcu_fd_sc_mcu7t5v0__buf_2
*CAP
1 FrameData[14] 0.000384962
2 *617:I 0.000384962
3 *617:I *618:I 0.00195346
4 *617:I *699:I 2.23598e-06
5 *617:I *20:21 0.00773679
6 *617:I *259:18 0.00381804
7 *616:I *617:I 3.12005e-05
*RES
1 FrameData[14] *617:I 29.178 
*END

*D_NET *7 0.0135453
*CONN
*P FrameData[15] I
*I *618:I I *D gf180mcu_fd_sc_mcu7t5v0__buf_2
*CAP
1 FrameData[15] 0.000615305
2 *618:I 0.000615305
3 *618:I *619:I 0.00633982
4 *618:I *699:I 4.02265e-05
5 *618:I *259:18 0.00398119
6 *617:I *618:I 0.00195346
*RES
1 FrameData[15] *618:I 29.634 
*END

*D_NET *8 0.0148671
*CONN
*P FrameData[16] I
*I *619:I I *D gf180mcu_fd_sc_mcu7t5v0__buf_2
*CAP
1 FrameData[16] 0.000921221
2 *619:I 0.000921221
3 *619:I *620:I 7.86773e-05
4 *619:I *621:I 2.30549e-05
5 *619:I *656:I 3.89274e-05
6 *619:I *685:I 0.000706116
7 *619:I *761:I 0.00121358
8 *619:I *18:21 0.00222563
9 *619:I *224:18 0.000219015
10 *619:I *227:22 0.00124281
11 *619:I *259:18 0.000937061
12 *618:I *619:I 0.00633982
*RES
1 FrameData[16] *619:I 32.826 
*END

*D_NET *9 0.00989964
*CONN
*P FrameData[17] I
*I *620:I I *D gf180mcu_fd_sc_mcu7t5v0__buf_2
*CAP
1 FrameData[17] 0.00149492
2 *620:I 0.00149492
3 *620:I *621:I 0.000154121
4 *620:I *622:I 0
5 *620:I *624:I 0
6 *620:I *625:I 0.00183571
7 *620:I *655:I 4.57747e-05
8 *620:I *656:I 0.000181689
9 *620:I *657:I 0.00235619
10 *620:I *664:I 2.97354e-05
11 *620:I *699:I 0.000732334
12 *620:I *740:I 3.96023e-05
13 *620:I *769:I 3.95936e-05
14 *620:I *780:I 5.29084e-05
15 *620:I *18:21 0.00104139
16 *620:I *187:22 0.000170029
17 *620:I *224:18 9.33722e-05
18 *620:I *259:18 5.86721e-05
19 *619:I *620:I 7.86773e-05
*RES
1 FrameData[17] *620:I 32.826 
*END

*D_NET *10 0.0175135
*CONN
*P FrameData[18] I
*I *621:I I *D gf180mcu_fd_sc_mcu7t5v0__buf_2
*CAP
1 FrameData[18] 0.00190026
2 *621:I 0.00190026
3 *621:I *622:I 0.000154121
4 *621:I *623:I 0.000118665
5 *621:I *626:I 0.00337566
6 *621:I *627:I 0.00365181
7 *621:I *660:I 0.000203882
8 *621:I *662:I 0.00113648
9 *621:I *664:I 4.17818e-05
10 *621:I *697:I 5.87561e-06
11 *621:I *699:I 0.000664193
12 *621:I *755:I 8.94371e-05
13 *621:I *758:I 0.000557307
14 *621:I *18:21 5.67543e-05
15 *621:I *19:21 0.000167695
16 *621:I *20:21 0.00297886
17 *621:I *24:13 0
18 *621:I *224:18 7.20768e-05
19 *621:I *259:18 4.72452e-05
20 *616:I *621:I 0.000213918
21 *619:I *621:I 2.30549e-05
22 *620:I *621:I 0.000154121
*RES
1 FrameData[18] *621:I 49.122 
*END

*D_NET *11 0.0149066
*CONN
*P FrameData[19] I
*I *622:I I *D gf180mcu_fd_sc_mcu7t5v0__buf_2
*CAP
1 FrameData[19] 0.00149104
2 *622:I 0.00149104
3 *622:I *623:I 0.00293484
4 *622:I *624:I 0.00344983
5 *622:I *660:I 0.000607124
6 *622:I *663:I 4.21577e-06
7 *622:I *664:I 2.2499e-05
8 *622:I *666:I 2.96621e-05
9 *622:I *696:I 1.93526e-05
10 *622:I *740:I 0.000408675
11 *622:I *743:I 0.000434101
12 *622:I *744:I 7.12947e-05
13 *622:I *749:I 0.00180725
14 *622:I *752:I 0.000434427
15 *622:I *754:I 1.93526e-05
16 *622:I *763:I 0.000566991
17 *622:I *776:I 0.000702073
18 *622:I *251:18 0.000258683
19 *620:I *622:I 0
20 *621:I *622:I 0.000154121
*RES
1 FrameData[19] *622:I 43.346 
*END

*D_NET *12 0.00967108
*CONN
*P FrameData[1] I
*I *604:I I *D gf180mcu_fd_sc_mcu7t5v0__buf_2
*CAP
1 FrameData[1] 0.000919411
2 *604:I 0.000919411
3 *604:I *605:I 0.00118613
4 *604:I *637:I 0.000169591
5 *604:I *643:I 0
6 *604:I *79:17 0.00118108
7 *603:I *604:I 0.00529546
*RES
1 FrameData[1] *604:I 30.242 
*END

*D_NET *13 0.0137445
*CONN
*P FrameData[20] I
*I *623:I I *D gf180mcu_fd_sc_mcu7t5v0__buf_2
*CAP
1 FrameData[20] 0.00110103
2 *623:I 0.00110103
3 *623:I *624:I 0.00181884
4 *623:I *625:I 0
5 *623:I *660:I 2.6126e-05
6 *623:I *663:I 0.000130957
7 *623:I *743:I 0.000748751
8 *623:I *745:I 0.000542447
9 *623:I *755:I 7.56868e-05
10 *623:I *763:I 0.00180311
11 *623:I *771:I 0.00130405
12 *623:I *251:18 0.00203893
13 *621:I *623:I 0.000118665
14 *622:I *623:I 0.00293484
*RES
1 FrameData[20] *623:I 40.914 
*END

*D_NET *14 0.0121093
*CONN
*P FrameData[21] I
*I *624:I I *D gf180mcu_fd_sc_mcu7t5v0__buf_2
*CAP
1 FrameData[21] 0.00132645
2 *624:I 0.00132645
3 *624:I *625:I 0.000404538
4 *624:I *664:I 0.000422827
5 *624:I *742:I 3.83938e-05
6 *624:I *743:I 8.75318e-05
7 *624:I *771:I 0.00323444
8 *620:I *624:I 0
9 *622:I *624:I 0.00344983
10 *623:I *624:I 0.00181884
*RES
1 FrameData[21] *624:I 39.774 
*END

*D_NET *15 0.0147763
*CONN
*P FrameData[22] I
*I *625:I I *D gf180mcu_fd_sc_mcu7t5v0__buf_2
*CAP
1 FrameData[22] 0.00118077
2 *625:I 0.00118077
3 *625:I *626:I 0.00506453
4 *625:I *656:I 0.00311928
5 *625:I *674:I 0.000131891
6 *625:I *685:I 0.000431136
7 *625:I *699:I 0.000324241
8 *625:I *742:I 0.000402134
9 *625:I *745:I 0.000254297
10 *625:I *749:I 0.000125473
11 *625:I *754:I 6.55331e-05
12 *625:I *763:I 0.000256026
13 *620:I *625:I 0.00183571
14 *623:I *625:I 0
15 *624:I *625:I 0.000404538
*RES
1 FrameData[22] *625:I 42.662 
*END

*D_NET *16 0.0169442
*CONN
*P FrameData[23] I
*I *626:I I *D gf180mcu_fd_sc_mcu7t5v0__buf_2
*CAP
1 FrameData[23] 0.00190771
2 *626:I 0.00190771
3 *626:I N2BEGb[2] 0.000478179
4 *626:I *627:I 0.00357448
5 *626:I *674:I 6.42791e-05
6 *626:I *699:I 5.75752e-06
7 *626:I *744:I 5.9206e-05
8 *626:I *751:I 0.000474241
9 *626:I *754:I 6.33531e-06
10 *626:I *758:I 0
11 *626:I *771:I 0
12 *616:I *626:I 2.6126e-05
13 *621:I *626:I 0.00337566
14 *625:I *626:I 0.00506453
*RES
1 FrameData[23] *626:I 44.106 
*END

*D_NET *17 0.0202902
*CONN
*P FrameData[24] I
*I *627:I I *D gf180mcu_fd_sc_mcu7t5v0__buf_2
*CAP
1 FrameData[24] 0.00144762
2 *627:I 0.00144762
3 *627:I *702:I 0.000362617
4 *627:I *714:I 4.58601e-06
5 *627:I *725:I 5.99352e-05
6 *627:I *758:I 0.000665795
7 *627:I *18:21 8.10952e-05
8 *627:I *19:21 0.000655118
9 *627:I *20:21 0.000184439
10 *627:I *21:13 0.000646611
11 *627:I *226:18 0.000635007
12 *615:I *627:I 4.37925e-05
13 *616:I *627:I 0.00682963
14 *621:I *627:I 0.00365181
15 *626:I *627:I 0.00357448
*RES
1 FrameData[24] *627:I 49.73 
*END

*D_NET *18 0.0174985
*CONN
*P FrameData[25] I
*I *628:I I *D gf180mcu_fd_sc_mcu7t5v0__buf_2
*CAP
1 FrameData[25] 0.00223784
2 *628:I 3.49621e-05
3 *18:21 0.0022728
4 *628:I *224:18 3.2657e-05
5 *628:I *226:18 0
6 *18:21 *612:I 0.00371973
7 *18:21 *716:I 0.000175514
8 *18:21 *770:I 0
9 *18:21 *19:21 0.00452256
10 *18:21 *24:13 0.000976403
11 *613:I *18:21 0.000121123
12 *619:I *18:21 0.00222563
13 *620:I *18:21 0.00104139
14 *621:I *18:21 5.67543e-05
15 *627:I *18:21 8.10952e-05
*RES
1 FrameData[25] *18:21 49.502 
2 *18:21 *628:I 9.228 
*END

*D_NET *19 0.0192121
*CONN
*P FrameData[26] I
*I *629:I I *D gf180mcu_fd_sc_mcu7t5v0__buf_2
*CAP
1 FrameData[26] 0.00276317
2 *629:I 0
3 *19:21 0.00276317
4 *19:21 *611:I 0.00526531
5 *19:21 *612:I 0.00086666
6 *19:21 *702:I 4.73915e-05
7 *19:21 *712:I 1.15244e-05
8 *19:21 *716:I 0.000233042
9 *19:21 *739:I 0
10 *19:21 *20:21 3.16833e-05
11 *19:21 *21:13 9.6768e-05
12 *19:21 *206:20 0.00176929
13 *19:21 *226:18 1.87382e-05
14 *621:I *19:21 0.000167695
15 *627:I *19:21 0.000655118
16 *18:21 *19:21 0.00452256
*RES
1 FrameData[26] *19:21 49.79 
2 *19:21 *629:I 4.5 
*END

*D_NET *20 0.0262324
*CONN
*P FrameData[27] I
*I *630:I I *D gf180mcu_fd_sc_mcu7t5v0__buf_2
*CAP
1 FrameData[27] 0.00135597
2 *630:I 0.000183094
3 *20:21 0.00153907
4 *630:I *706:I 0.000856047
5 *630:I *771:I 0.00251053
6 *630:I *780:I 3.26302e-05
7 *630:I *79:17 0.000627267
8 *20:21 *685:I 1.50699e-05
9 *20:21 *700:I 0.000828829
10 *20:21 *739:I 0.000154348
11 *20:21 *747:I 0.00191185
12 *20:21 *21:13 3.16833e-05
13 *20:21 *22:11 0.00253914
14 *20:21 *24:13 0.00192602
15 *20:21 *79:17 0.000235665
16 *20:21 *226:18 0.000311422
17 *20:21 *259:18 0.000143649
18 *616:I *20:21 9.83524e-05
19 *617:I *20:21 0.00773679
20 *621:I *20:21 0.00297886
21 *627:I *20:21 0.000184439
22 *19:21 *20:21 3.16833e-05
*RES
1 FrameData[27] *20:21 49.79 
2 *20:21 *630:I 19.808 
*END

*D_NET *21 0.0260581
*CONN
*P FrameData[28] I
*I *631:I I *D gf180mcu_fd_sc_mcu7t5v0__buf_2
*CAP
1 FrameData[28] 0.00267707
2 *631:I 0.00121683
3 *21:13 0.0038939
4 *631:I *683:I 0.00041564
5 *631:I *718:I 0.000801848
6 *631:I *730:I 0.000408294
7 *631:I *775:I 0.000360997
8 *631:I *227:22 0.0007475
9 *21:13 N2BEG[0] 3.31536e-05
10 *21:13 *611:I 0.00677526
11 *21:13 *632:I 0.00329829
12 *21:13 *640:I 0
13 *21:13 *711:I 0.00282635
14 *21:13 *744:I 0.000474162
15 *21:13 *22:11 2.30905e-05
16 *21:13 *24:13 0
17 *21:13 *206:20 0.00133066
18 *627:I *21:13 0.000646611
19 *19:21 *21:13 9.6768e-05
20 *20:21 *21:13 3.16833e-05
*RES
1 FrameData[28] *21:13 47.95 
2 *21:13 *631:I 19.716 
*END

*D_NET *22 0.0308008
*CONN
*P FrameData[29] I
*I *632:I I *D gf180mcu_fd_sc_mcu7t5v0__buf_2
*CAP
1 FrameData[29] 0.0005233
2 *632:I 0.0012401
3 *22:11 0.0017634
4 *632:I *610:I 0.00186466
5 *632:I *611:I 0.000442182
6 *632:I *633:I 0.00302177
7 *632:I *635:I 0.00282061
8 *632:I *677:I 6.2265e-05
9 *632:I *678:I 0.000352181
10 *632:I *679:I 8.04564e-05
11 *632:I *692:I 0.000249412
12 *632:I *711:I 0.00338206
13 *632:I *730:I 4.45751e-05
14 *632:I *779:I 0.00348816
15 *22:11 *24:13 0.000406433
16 *22:11 *25:19 0.00519871
17 *20:21 *22:11 0.00253914
18 *21:13 *632:I 0.00329829
19 *21:13 *22:11 2.30905e-05
*RES
1 FrameData[29] *22:11 22.642 
2 *22:11 *632:I 47.608 
*END

*D_NET *23 0.00989812
*CONN
*P FrameData[2] I
*I *605:I I *D gf180mcu_fd_sc_mcu7t5v0__buf_2
*CAP
1 FrameData[2] 0.0010118
2 *605:I 0.0010118
3 *605:I *606:I 0.000727496
4 *605:I *640:I 0.00124998
5 *605:I *695:I 0.00017557
6 *605:I *79:17 0.00393099
7 *605:I *224:18 0.000118069
8 *605:I *226:18 0.000486265
9 *604:I *605:I 0.00118613
*RES
1 FrameData[2] *605:I 31.078 
*END

*D_NET *24 0.0269032
*CONN
*P FrameData[30] I
*I *633:I I *D gf180mcu_fd_sc_mcu7t5v0__buf_2
*CAP
1 FrameData[30] 0.00183183
2 *633:I 0.000925266
3 *24:13 0.0027571
4 *633:I UserCLKo 5.76063e-06
5 *633:I *679:I 0.000301067
6 *633:I *680:I 8.66062e-05
7 *633:I *704:I 3.25235e-05
8 *633:I *705:I 0.000147262
9 *633:I *706:I 2.7435e-05
10 *633:I *730:I 0.000216589
11 *633:I *772:I 0.000540155
12 *633:I *187:22 8.04285e-05
13 *633:I *251:18 0.000130478
14 *24:13 *701:I 0.000543939
15 *24:13 *703:I 0.000947597
16 *24:13 *716:I 3.2709e-05
17 *24:13 *25:19 6.38308e-05
18 *613:I *24:13 0.00284039
19 *614:I *24:13 0.00906164
20 *621:I *24:13 0
21 *632:I *633:I 0.00302177
22 *18:21 *24:13 0.000976403
23 *20:21 *24:13 0.00192602
24 *21:13 *24:13 0
25 *22:11 *24:13 0.000406433
*RES
1 FrameData[30] *24:13 48.558 
2 *24:13 *633:I 28.412 
*END

*D_NET *25 0.0391845
*CONN
*P FrameData[31] I
*I *634:I I *D gf180mcu_fd_sc_mcu7t5v0__buf_2
*CAP
1 FrameData[31] 0.00199674
2 *634:I 0.00169484
3 *25:27 0.002836
4 *25:19 0.00313789
5 *634:I FrameData_O[10] 5.1289e-05
6 *634:I FrameData_O[12] 0.000184378
7 *634:I FrameData_O[13] 0.000386421
8 *634:I FrameData_O[15] 0.000200913
9 *634:I FrameData_O[16] 6.50663e-05
10 *634:I FrameData_O[18] 0.000149579
11 *634:I FrameData_O[19] 0.000202974
12 *634:I FrameData_O[20] 7.14351e-05
13 *634:I FrameData_O[21] 0.000556564
14 *634:I FrameData_O[22] 9.4764e-05
15 *634:I FrameData_O[6] 8.62664e-05
16 *634:I FrameData_O[7] 0.00061153
17 *634:I FrameData_O[9] 0.000212466
18 *634:I *654:I 0
19 *634:I *696:I 7.02034e-05
20 *634:I *697:I 2.22533e-05
21 *634:I *703:I 0.000125025
22 *634:I *709:I 1.91917e-06
23 *634:I *713:I 3.75308e-05
24 *634:I *715:I 4.97386e-06
25 *634:I *728:I 0
26 *634:I *187:22 6.46778e-06
27 *25:19 *606:I 0.00104014
28 *25:19 *607:I 0.00119035
29 *25:27 FrameData_O[1] 0
30 *25:27 FrameData_O[2] 0.000647219
31 *25:27 FrameData_O[3] 0.00155816
32 *25:27 *606:I 0.00191333
33 *25:27 *607:I 5.29497e-05
34 *25:27 *636:I 0.000409895
35 *25:27 *638:I 0.00693128
36 *25:27 *645:I 3.78425e-05
37 *25:27 *649:I 0.00137712
38 *25:27 *695:I 0.00279582
39 *25:27 *707:I 0.000392999
40 *25:27 *710:I 0.000137786
41 *25:27 *713:I 4.72989e-05
42 *25:27 *224:18 0.00236503
43 *25:27 *226:18 0.000217183
44 *22:11 *25:19 0.00519871
45 *24:13 *25:19 6.38308e-05
*RES
1 FrameData[31] *25:19 32.066 
2 *25:19 *25:27 40.296 
3 *25:27 *634:I 19.016 
*END

*D_NET *26 0.0132693
*CONN
*P FrameData[3] I
*I *606:I I *D gf180mcu_fd_sc_mcu7t5v0__buf_2
*CAP