*SPEF "ieee 1481-1999"
*DESIGN "S_term_SRAM"
*DATE "22:52:41 Friday December 05, 2025"
*VENDOR "The OpenROAD Project"
*PROGRAM "OpenROAD"
*VERSION "341650e72dad0dc8571822ff8c5d9c5e365327f7"
*DESIGN_FLOW "NAME_SCOPE LOCAL" "PIN_CAP NONE"
*DIVIDER /
*DELIMITER :
*BUS_DELIMITER []
*T_UNIT 1 NS
*C_UNIT 1 PF
*R_UNIT 1 OHM
*L_UNIT 1 HENRY

*NAME_MAP
*1 FrameData[0]
*2 FrameData[10]
*3 FrameData[11]
*4 FrameData[12]
*5 FrameData[13]
*6 FrameData[14]
*7 FrameData[15]
*8 FrameData[16]
*9 FrameData[17]
*10 FrameData[18]
*11 FrameData[19]
*12 FrameData[1]
*13 FrameData[20]
*14 FrameData[21]
*15 FrameData[22]
*16 FrameData[23]
*17 FrameData[24]
*18 FrameData[25]
*19 FrameData[26]
*20 FrameData[27]
*21 FrameData[28]
*22 FrameData[29]
*23 FrameData[2]
*24 FrameData[30]
*25 FrameData[31]
*26 FrameData[3]
*27 FrameData[4]
*28 FrameData[5]
*29 FrameData[6]
*30 FrameData[7]
*31 FrameData[8]
*32 FrameData[9]
*33 FrameData_O[0]
*34 FrameData_O[10]
*35 FrameData_O[11]
*36 FrameData_O[12]
*37 FrameData_O[13]
*38 FrameData_O[14]
*39 FrameData_O[15]
*40 FrameData_O[16]
*41 FrameData_O[17]
*42 FrameData_O[18]
*43 FrameData_O[19]
*44 FrameData_O[1]
*45 FrameData_O[20]
*46 FrameData_O[21]
*47 FrameData_O[22]
*48 FrameData_O[23]
*49 FrameData_O[24]
*50 FrameData_O[25]
*51 FrameData_O[26]
*52 FrameData_O[27]
*53 FrameData_O[28]
*54 FrameData_O[29]
*55 FrameData_O[2]
*56 FrameData_O[30]
*57 FrameData_O[31]
*58 FrameData_O[3]
*59 FrameData_O[4]
*60 FrameData_O[5]
*61 FrameData_O[6]
*62 FrameData_O[7]
*63 FrameData_O[8]
*64 FrameData_O[9]
*65 FrameStrobe[0]
*66 FrameStrobe[10]
*67 FrameStrobe[11]
*68 FrameStrobe[12]
*69 FrameStrobe[13]
*70 FrameStrobe[14]
*71 FrameStrobe[15]
*72 FrameStrobe[16]
*73 FrameStrobe[17]
*74 FrameStrobe[18]
*75 FrameStrobe[19]
*76 FrameStrobe[1]
*77 FrameStrobe[2]
*78 FrameStrobe[3]
*79 FrameStrobe[4]
*80 FrameStrobe[5]
*81 FrameStrobe[6]
*82 FrameStrobe[7]
*83 FrameStrobe[8]
*84 FrameStrobe[9]
*85 FrameStrobe_O[0]
*86 FrameStrobe_O[10]
*87 FrameStrobe_O[11]
*88 FrameStrobe_O[12]
*89 FrameStrobe_O[13]
*90 FrameStrobe_O[14]
*91 FrameStrobe_O[15]
*92 FrameStrobe_O[16]
*93 FrameStrobe_O[17]
*94 FrameStrobe_O[18]
*95 FrameStrobe_O[19]
*96 FrameStrobe_O[1]
*97 FrameStrobe_O[2]
*98 FrameStrobe_O[3]
*99 FrameStrobe_O[4]
*100 FrameStrobe_O[5]
*101 FrameStrobe_O[6]
*102 FrameStrobe_O[7]
*103 FrameStrobe_O[8]
*104 FrameStrobe_O[9]
*105 N1BEG[0]
*106 N1BEG[1]
*107 N1BEG[2]
*108 N1BEG[3]
*109 N2BEG[0]
*110 N2BEG[1]
*111 N2BEG[2]
*112 N2BEG[3]
*113 N2BEG[4]
*114 N2BEG[5]
*115 N2BEG[6]
*116 N2BEG[7]
*117 N2BEGb[0]
*118 N2BEGb[1]
*119 N2BEGb[2]
*120 N2BEGb[3]
*121 N2BEGb[4]
*122 N2BEGb[5]
*123 N2BEGb[6]
*124 N2BEGb[7]
*125 N4BEG[0]
*126 N4BEG[10]
*127 N4BEG[11]
*128 N4BEG[12]
*129 N4BEG[13]
*130 N4BEG[14]
*131 N4BEG[15]
*132 N4BEG[1]
*133 N4BEG[2]
*134 N4BEG[3]
*135 N4BEG[4]
*136 N4BEG[5]
*137 N4BEG[6]
*138 N4BEG[7]
*139 N4BEG[8]
*140 N4BEG[9]
*141 S1END[0]
*142 S1END[1]
*143 S1END[2]
*144 S1END[3]
*145 S2END[0]
*146 S2END[1]
*147 S2END[2]
*148 S2END[3]
*149 S2END[4]
*150 S2END[5]
*151 S2END[6]
*152 S2END[7]
*153 S2MID[0]
*154 S2MID[1]
*155 S2MID[2]
*156 S2MID[3]
*157 S2MID[4]
*158 S2MID[5]
*159 S2MID[6]
*160 S2MID[7]
*161 S4END[0]
*162 S4END[10]
*163 S4END[11]
*164 S4END[12]
*165 S4END[13]
*166 S4END[14]
*167 S4END[15]
*168 S4END[1]
*169 S4END[2]
*170 S4END[3]
*171 S4END[4]
*172 S4END[5]
*173 S4END[6]
*174 S4END[7]
*175 S4END[8]
*176 S4END[9]
*177 UserCLK
*178 UserCLKo
*181 net1
*182 net10
*183 net11
*184 net12
*185 net13
*186 net14
*187 net15
*188 net16
*189 net17
*190 net18
*191 net19
*192 net2
*193 net20
*194 net21
*195 net22
*196 net23
*197 net24
*198 net25
*199 net26
*200 net27
*201 net28
*202 net29
*203 net3
*204 net30
*205 net31
*206 net32
*207 net33
*208 net34
*209 net35
*210 net36
*211 net37
*212 net38
*213 net39
*214 net4
*215 net40
*216 net41
*217 net42
*218 net43
*219 net44
*220 net45
*221 net46
*222 net47
*223 net48
*224 net49
*225 net5
*226 net50
*227 net51
*228 net52
*229 net53
*230 net54
*231 net55
*232 net56
*233 net57
*234 net58
*235 net59
*236 net6
*237 net60
*238 net61
*239 net62
*240 net63
*241 net64
*242 net65
*243 net66
*244 net67
*245 net68
*246 net69
*247 net7
*248 net70
*249 net71
*250 net72
*251 net73
*252 net74
*253 net75
*254 net76
*255 net77
*256 net78
*257 net79
*258 net8
*259 net80
*260 net81
*261 net82
*262 net83
*263 net84
*264 net85
*265 net86
*266 net87
*267 net88
*268 net89
*269 net9
*270 ANTENNA__00__I
*271 ANTENNA__01__I
*272 ANTENNA__02__I
*273 ANTENNA__03__I
*274 ANTENNA__04__I
*275 ANTENNA__05__I
*276 ANTENNA__06__I
*277 ANTENNA__07__I
*278 ANTENNA__08__I
*279 ANTENNA__09__I
*280 ANTENNA__10__I
*281 ANTENNA__11__I
*282 ANTENNA__12__I
*283 ANTENNA__13__I
*284 ANTENNA__14__I
*285 ANTENNA__15__I
*286 ANTENNA__16__I
*287 ANTENNA__17__I
*288 ANTENNA__18__I
*289 ANTENNA__19__I
*290 ANTENNA__20__I
*291 ANTENNA__21__I
*292 ANTENNA__22__I
*293 ANTENNA__23__I
*294 ANTENNA__24__I
*295 ANTENNA__25__I
*296 ANTENNA__26__I
*297 ANTENNA__27__I
*298 ANTENNA__28__I
*299 ANTENNA__29__I
*300 ANTENNA__30__I
*301 ANTENNA__31__I
*302 ANTENNA__32__I
*303 ANTENNA__33__I
*304 ANTENNA__34__I
*305 ANTENNA__35__I
*306 ANTENNA__36__I
*307 ANTENNA__37__I
*308 ANTENNA__38__I
*309 ANTENNA__39__I
*310 ANTENNA__40__I
*311 ANTENNA__41__I
*312 ANTENNA__42__I
*313 ANTENNA__43__I
*314 ANTENNA__44__I
*315 ANTENNA__45__I
*316 ANTENNA__46__I
*317 ANTENNA__47__I
*318 ANTENNA__48__I
*319 ANTENNA__49__I
*320 ANTENNA__50__I
*321 ANTENNA__51__I
*322 ANTENNA__52__I
*323 ANTENNA__53__I
*324 ANTENNA__54__I
*325 ANTENNA__55__I
*326 ANTENNA__56__I
*327 ANTENNA__57__I
*328 ANTENNA__58__I
*329 ANTENNA__59__I
*330 ANTENNA__60__I
*331 ANTENNA__61__I
*332 ANTENNA__62__I
*333 ANTENNA__63__I
*334 ANTENNA__64__I
*335 ANTENNA__65__I
*336 ANTENNA__66__I
*337 ANTENNA__67__I
*338 ANTENNA__68__I
*339 ANTENNA__69__I
*340 ANTENNA__70__I
*341 ANTENNA__71__I
*342 ANTENNA__72__I
*343 ANTENNA__73__I
*344 ANTENNA__74__I
*345 ANTENNA__75__I
*346 ANTENNA__76__I
*347 ANTENNA__77__I
*348 ANTENNA__78__I
*349 ANTENNA__79__I
*350 ANTENNA__80__I
*351 ANTENNA__81__I
*352 ANTENNA__82__I
*353 ANTENNA__83__I
*354 ANTENNA__84__I
*355 ANTENNA__85__I
*356 ANTENNA__86__I
*357 ANTENNA__87__I
*358 ANTENNA__88__I
*359 FILLER_0_101
*360 FILLER_0_104
*361 FILLER_0_115
*362 FILLER_0_117
*363 FILLER_0_122
*364 FILLER_0_148
*365 FILLER_0_160
*366 FILLER_0_164
*367 FILLER_0_178
*368 FILLER_0_189
*369 FILLER_0_195
*370 FILLER_0_2
*371 FILLER_0_206
*372 FILLER_0_240
*373 FILLER_0_36
*374 FILLER_0_70
*375 FILLER_0_86
*376 FILLER_0_90
*377 FILLER_10_107
*378 FILLER_10_115
*379 FILLER_10_118
*380 FILLER_10_136
*381 FILLER_10_147
*382 FILLER_10_163
*383 FILLER_10_171
*384 FILLER_10_177
*385 FILLER_10_18
*386 FILLER_10_193
*387 FILLER_10_2
*388 FILLER_10_214
*389 FILLER_10_216
*390 FILLER_10_34
*391 FILLER_11_105
*392 FILLER_11_107
*393 FILLER_11_126
*394 FILLER_11_131
*395 FILLER_11_135
*396 FILLER_11_138
*397 FILLER_11_142
*398 FILLER_11_160
*399 FILLER_11_164
*400 FILLER_11_168
*401 FILLER_11_172
*402 FILLER_11_174
*403 FILLER_11_18
*404 FILLER_11_2
*405 FILLER_11_209
*406 FILLER_11_240
*407 FILLER_11_26
*408 FILLER_11_72
*409 FILLER_11_74
*410 FILLER_12_129
*411 FILLER_12_146
*412 FILLER_12_166
*413 FILLER_12_18
*414 FILLER_12_2
*415 FILLER_12_20
*416 FILLER_12_37
*417 FILLER_13_123
*418 FILLER_13_139
*419 FILLER_13_142
*420 FILLER_13_146
*421 FILLER_13_148
*422 FILLER_13_151
*423 FILLER_13_155
*424 FILLER_13_159
*425 FILLER_13_183
*426 FILLER_13_194
*427 FILLER_13_2
*428 FILLER_13_209
*429 FILLER_13_254
*430 FILLER_13_72
*431 FILLER_14_107
*432 FILLER_14_18
*433 FILLER_14_2
*434 FILLER_14_20
*435 FILLER_14_241
*436 FILLER_14_37
*437 FILLER_15_104
*438 FILLER_15_127
*439 FILLER_15_140
*440 FILLER_15_143
*441 FILLER_15_147
*442 FILLER_15_161
*443 FILLER_15_172
*444 FILLER_15_174
*445 FILLER_15_2
*446 FILLER_15_203
*447 FILLER_15_236
*448 FILLER_15_268
*449 FILLER_15_36
*450 FILLER_15_70
*451 FILLER_1_104
*452 FILLER_1_128
*453 FILLER_1_142
*454 FILLER_1_144
*455 FILLER_1_147
*456 FILLER_1_155
*457 FILLER_1_167
*458 FILLER_1_194
*459 FILLER_1_2
*460 FILLER_1_203
*461 FILLER_1_207
*462 FILLER_1_209
*463 FILLER_1_212
*464 FILLER_1_214
*465 FILLER_1_225
*466 FILLER_1_66
*467 FILLER_1_72
*468 FILLER_2_101
*469 FILLER_2_107
*470 FILLER_2_115
*471 FILLER_2_126
*472 FILLER_2_146
*473 FILLER_2_155
*474 FILLER_2_171
*475 FILLER_2_177
*476 FILLER_2_181
*477 FILLER_2_183
*478 FILLER_2_186
*479 FILLER_2_194
*480 FILLER_2_198
*481 FILLER_2_2
*482 FILLER_2_200
*483 FILLER_2_211
*484 FILLER_2_215
*485 FILLER_2_217
*486 FILLER_2_228
*487 FILLER_2_230
*488 FILLER_2_34
*489 FILLER_2_37
*490 FILLER_3_104
*491 FILLER_3_112
*492 FILLER_3_114
*493 FILLER_3_125
*494 FILLER_3_133
*495 FILLER_3_135
*496 FILLER_3_138
*497 FILLER_3_142
*498 FILLER_3_2
*499 FILLER_3_206
*500 FILLER_3_212
*501 FILLER_3_228
*502 FILLER_3_240
*503 FILLER_3_66
*504 FILLER_3_72
*505 FILLER_4_101
*506 FILLER_4_107
*507 FILLER_4_115
*508 FILLER_4_117
*509 FILLER_4_122
*510 FILLER_4_143
*511 FILLER_4_147
*512 FILLER_4_151
*513 FILLER_4_167
*514 FILLER_4_177
*515 FILLER_4_2
*516 FILLER_4_241
*517 FILLER_4_247
*518 FILLER_4_251
*519 FILLER_4_34
*520 FILLER_4_37
*521 FILLER_5_104
*522 FILLER_5_142
*523 FILLER_5_159
*524 FILLER_5_191
*525 FILLER_5_2
*526 FILLER_5_207
*527 FILLER_5_209
*528 FILLER_5_212
*529 FILLER_5_228
*530 FILLER_5_236
*531 FILLER_5_240
*532 FILLER_5_66
*533 FILLER_5_72
*534 FILLER_6_101
*535 FILLER_6_107
*536 FILLER_6_115
*537 FILLER_6_119
*538 FILLER_6_130
*539 FILLER_6_162
*540 FILLER_6_170
*541 FILLER_6_174
*542 FILLER_6_177
*543 FILLER_6_2
*544 FILLER_6_241
*545 FILLER_6_247
*546 FILLER_6_34
*547 FILLER_6_37
*548 FILLER_7_106
*549 FILLER_7_114
*550 FILLER_7_118
*551 FILLER_7_129
*552 FILLER_7_132
*553 FILLER_7_136
*554 FILLER_7_150
*555 FILLER_7_182
*556 FILLER_7_198
*557 FILLER_7_2
*558 FILLER_7_206
*559 FILLER_7_212
*560 FILLER_7_220
*561 FILLER_7_224
*562 FILLER_7_226
*563 FILLER_7_34
*564 FILLER_7_50
*565 FILLER_7_58
*566 FILLER_7_74
*567 FILLER_8_101
*568 FILLER_8_107
*569 FILLER_8_115
*570 FILLER_8_119
*571 FILLER_8_121
*572 FILLER_8_140
*573 FILLER_8_172
*574 FILLER_8_174
*575 FILLER_8_177
*576 FILLER_8_2
*577 FILLER_8_209
*578 FILLER_8_247
*579 FILLER_8_34
*580 FILLER_8_37
*581 FILLER_8_41
*582 FILLER_8_44
*583 FILLER_8_52
*584 FILLER_8_64
*585 FILLER_8_75
*586 FILLER_8_83
*587 FILLER_8_97
*588 FILLER_9_109
*589 FILLER_9_125
*590 FILLER_9_129
*591 FILLER_9_142
*592 FILLER_9_174
*593 FILLER_9_190
*594 FILLER_9_198
*595 FILLER_9_2
*596 FILLER_9_202
*597 FILLER_9_206
*598 FILLER_9_212
*599 FILLER_9_90
*600 PHY_EDGE_ROW_0_Left_16
*601 PHY_EDGE_ROW_0_Right_0
*602 PHY_EDGE_ROW_10_Left_26
*603 PHY_EDGE_ROW_10_Right_10
*604 PHY_EDGE_ROW_11_Left_27
*605 PHY_EDGE_ROW_11_Right_11
*606 PHY_EDGE_ROW_12_Left_28
*607 PHY_EDGE_ROW_12_Right_12
*608 PHY_EDGE_ROW_13_Left_29
*609 PHY_EDGE_ROW_13_Right_13
*610 PHY_EDGE_ROW_14_Left_30
*611 PHY_EDGE_ROW_14_Right_14
*612 PHY_EDGE_ROW_15_Left_31
*613 PHY_EDGE_ROW_15_Right_15
*614 PHY_EDGE_ROW_1_Left_17
*615 PHY_EDGE_ROW_1_Right_1
*616 PHY_EDGE_ROW_2_Left_18
*617 PHY_EDGE_ROW_2_Right_2
*618 PHY_EDGE_ROW_3_Left_19
*619 PHY_EDGE_ROW_3_Right_3
*620 PHY_EDGE_ROW_4_Left_20
*621 PHY_EDGE_ROW_4_Right_4
*622 PHY_EDGE_ROW_5_Left_21
*623 PHY_EDGE_ROW_5_Right_5
*624 PHY_EDGE_ROW_6_Left_22
*625 PHY_EDGE_ROW_6_Right_6
*626 PHY_EDGE_ROW_7_Left_23
*627 PHY_EDGE_ROW_7_Right_7
*628 PHY_EDGE_ROW_8_Left_24
*629 PHY_EDGE_ROW_8_Right_8
*630 PHY_EDGE_ROW_9_Left_25
*631 PHY_EDGE_ROW_9_Right_9
*632 TAP_TAPCELL_ROW_0_32
*633 TAP_TAPCELL_ROW_0_33
*634 TAP_TAPCELL_ROW_0_34
*635 TAP_TAPCELL_ROW_0_35
*636 TAP_TAPCELL_ROW_0_36
*637 TAP_TAPCELL_ROW_0_37
*638 TAP_TAPCELL_ROW_0_38
*639 TAP_TAPCELL_ROW_10_70
*640 TAP_TAPCELL_ROW_10_71
*641 TAP_TAPCELL_ROW_10_72
*642 TAP_TAPCELL_ROW_10_73
*643 TAP_TAPCELL_ROW_11_74
*644 TAP_TAPCELL_ROW_11_75
*645 TAP_TAPCELL_ROW_11_76
*646 TAP_TAPCELL_ROW_12_77
*647 TAP_TAPCELL_ROW_12_78
*648 TAP_TAPCELL_ROW_12_79
*649 TAP_TAPCELL_ROW_12_80
*650 TAP_TAPCELL_ROW_13_81
*651 TAP_TAPCELL_ROW_13_82
*652 TAP_TAPCELL_ROW_13_83
*653 TAP_TAPCELL_ROW_14_84
*654 TAP_TAPCELL_ROW_14_85
*655 TAP_TAPCELL_ROW_14_86
*656 TAP_TAPCELL_ROW_14_87
*657 TAP_TAPCELL_ROW_15_88
*658 TAP_TAPCELL_ROW_15_89
*659 TAP_TAPCELL_ROW_15_90
*660 TAP_TAPCELL_ROW_15_91
*661 TAP_TAPCELL_ROW_15_92
*662 TAP_TAPCELL_ROW_15_93
*663 TAP_TAPCELL_ROW_15_94
*664 TAP_TAPCELL_ROW_1_39
*665 TAP_TAPCELL_ROW_1_40
*666 TAP_TAPCELL_ROW_1_41
*667 TAP_TAPCELL_ROW_2_42
*668 TAP_TAPCELL_ROW_2_43
*669 TAP_TAPCELL_ROW_2_44
*670 TAP_TAPCELL_ROW_2_45
*671 TAP_TAPCELL_ROW_3_46
*672 TAP_TAPCELL_ROW_3_47
*673 TAP_TAPCELL_ROW_3_48
*674 TAP_TAPCELL_ROW_4_49
*675 TAP_TAPCELL_ROW_4_50
*676 TAP_TAPCELL_ROW_4_51
*677 TAP_TAPCELL_ROW_4_52
*678 TAP_TAPCELL_ROW_5_53
*679 TAP_TAPCELL_ROW_5_54
*680 TAP_TAPCELL_ROW_5_55
*681 TAP_TAPCELL_ROW_6_56
*682 TAP_TAPCELL_ROW_6_57
*683 TAP_TAPCELL_ROW_6_58
*684 TAP_TAPCELL_ROW_6_59
*685 TAP_TAPCELL_ROW_7_60
*686 TAP_TAPCELL_ROW_7_61
*687 TAP_TAPCELL_ROW_7_62
*688 TAP_TAPCELL_ROW_8_63
*689 TAP_TAPCELL_ROW_8_64
*690 TAP_TAPCELL_ROW_8_65
*691 TAP_TAPCELL_ROW_8_66
*692 TAP_TAPCELL_ROW_9_67
*693 TAP_TAPCELL_ROW_9_68
*694 TAP_TAPCELL_ROW_9_69
*695 _00_
*696 _01_
*697 _02_
*698 _03_
*699 _04_
*700 _05_
*701 _06_
*702 _07_
*703 _08_
*704 _09_
*705 _10_
*706 _11_
*707 _12_
*708 _13_
*709 _14_
*710 _15_
*711 _16_
*712 _17_
*713 _18_
*714 _19_
*715 _20_
*716 _21_
*717 _22_
*718 _23_
*719 _24_
*720 _25_
*721 _26_
*722 _27_
*723 _28_
*724 _29_
*725 _30_
*726 _31_
*727 _32_
*728 _33_
*729 _34_
*730 _35_
*731 _36_
*732 _37_
*733 _38_
*734 _39_
*735 _40_
*736 _41_
*737 _42_
*738 _43_
*739 _44_
*740 _45_
*741 _46_
*742 _47_
*743 _48_
*744 _49_
*745 _50_
*746 _51_
*747 _52_
*748 _53_
*749 _54_
*750 _55_
*751 _56_
*752 _57_
*753 _58_
*754 _59_
*755 _60_
*756 _61_
*757 _62_
*758 _63_
*759 _64_
*760 _65_
*761 _66_
*762 _67_
*763 _68_
*764 _69_
*765 _70_
*766 _71_
*767 _72_
*768 _73_
*769 _74_
*770 _75_
*771 _76_
*772 _77_
*773 _78_
*774 _79_
*775 _80_
*776 _81_
*777 _82_
*778 _83_
*779 _84_
*780 _85_
*781 _86_
*782 _87_
*783 _88_
*784 output1
*785 output10
*786 output11
*787 output12
*788 output13
*789 output14
*790 output15
*791 output16
*792 output17
*793 output18
*794 output19
*795 output2
*796 output20
*797 output21
*798 output22
*799 output23
*800 output24
*801 output25
*802 output26
*803 output27
*804 output28
*805 output29
*806 output3
*807 output30
*808 output31
*809 output32
*810 output33
*811 output34
*812 output35
*813 output36
*814 output37
*815 output38
*816 output39
*817 output4
*818 output40
*819 output41
*820 output42
*821 output43
*822 output44
*823 output45
*824 output46
*825 output47
*826 output48
*827 output49
*828 output5
*829 output50
*830 output51
*831 output52
*832 output53
*833 output54
*834 output55
*835 output56
*836 output57
*837 output58
*838 output59
*839 output6
*840 output60
*841 output61
*842 output62
*843 output63
*844 output64
*845 output65
*846 output66
*847 output67
*848 output68
*849 output69
*850 output7
*851 output70
*852 output71
*853 output72
*854 output73
*855 output74
*856 output75
*857 output76
*858 output77
*859 output78
*860 output79
*861 output8
*862 output80
*863 output81
*864 output82
*865 output83
*866 output84
*867 output85
*868 output86
*869 output87
*870 output88
*871 output89
*872 output9

*PORTS
FrameData[0] I
FrameData[10] I
FrameData[11] I
FrameData[12] I
FrameData[13] I
FrameData[14] I
FrameData[15] I
FrameData[16] I
FrameData[17] I
FrameData[18] I
FrameData[19] I
FrameData[1] I
FrameData[20] I
FrameData[21] I
FrameData[22] I
FrameData[23] I
FrameData[24] I
FrameData[25] I
FrameData[26] I
FrameData[27] I
FrameData[28] I
FrameData[29] I
FrameData[2] I
FrameData[30] I
FrameData[31] I
FrameData[3] I
FrameData[4] I
FrameData[5] I
FrameData[6] I
FrameData[7] I
FrameData[8] I
FrameData[9] I
FrameData_O[0] O
FrameData_O[10] O
FrameData_O[11] O
FrameData_O[12] O
FrameData_O[13] O
FrameData_O[14] O
FrameData_O[15] O
FrameData_O[16] O
FrameData_O[17] O
FrameData_O[18] O
FrameData_O[19] O
FrameData_O[1] O
FrameData_O[20] O
FrameData_O[21] O
FrameData_O[22] O
FrameData_O[23] O
FrameData_O[24] O
FrameData_O[25] O
FrameData_O[26] O
FrameData_O[27] O
FrameData_O[28] O
FrameData_O[29] O
FrameData_O[2] O
FrameData_O[30] O
FrameData_O[31] O
FrameData_O[3] O
FrameData_O[4] O
FrameData_O[5] O
FrameData_O[6] O
FrameData_O[7] O
FrameData_O[8] O
FrameData_O[9] O
FrameStrobe[0] I
FrameStrobe[10] I
FrameStrobe[11] I
FrameStrobe[12] I
FrameStrobe[13] I
FrameStrobe[14] I
FrameStrobe[15] I
FrameStrobe[16] I
FrameStrobe[17] I
FrameStrobe[18] I
FrameStrobe[19] I
FrameStrobe[1] I
FrameStrobe[2] I
FrameStrobe[3] I
FrameStrobe[4] I
FrameStrobe[5] I
FrameStrobe[6] I
FrameStrobe[7] I
FrameStrobe[8] I
FrameStrobe[9] I
FrameStrobe_O[0] O
FrameStrobe_O[10] O
FrameStrobe_O[11] O
FrameStrobe_O[12] O
FrameStrobe_O[13] O
FrameStrobe_O[14] O
FrameStrobe_O[15] O
FrameStrobe_O[16] O
FrameStrobe_O[17] O
FrameStrobe_O[18] O
FrameStrobe_O[19] O
FrameStrobe_O[1] O
FrameStrobe_O[2] O
FrameStrobe_O[3] O
FrameStrobe_O[4] O
FrameStrobe_O[5] O
FrameStrobe_O[6] O
FrameStrobe_O[7] O
FrameStrobe_O[8] O
FrameStrobe_O[9] O
N1BEG[0] O
N1BEG[1] O
N1BEG[2] O
N1BEG[3] O
N2BEG[0] O
N2BEG[1] O
N2BEG[2] O
N2BEG[3] O
N2BEG[4] O
N2BEG[5] O
N2BEG[6] O
N2BEG[7] O
N2BEGb[0] O
N2BEGb[1] O
N2BEGb[2] O
N2BEGb[3] O
N2BEGb[4] O
N2BEGb[5] O
N2BEGb[6] O
N2BEGb[7] O
N4BEG[0] O
N4BEG[10] O
N4BEG[11] O
N4BEG[12] O
N4BEG[13] O
N4BEG[14] O
N4BEG[15] O
N4BEG[1] O
N4BEG[2] O
N4BEG[3] O
N4BEG[4] O
N4BEG[5] O
N4BEG[6] O
N4BEG[7] O
N4BEG[8] O
N4BEG[9] O
S1END[0] I
S1END[1] I
S1END[2] I
S1END[3] I
S2END[0] I
S2END[1] I
S2END[2] I
S2END[3] I
S2END[4] I
S2END[5] I
S2END[6] I
S2END[7] I
S2MID[0] I
S2MID[1] I
S2MID[2] I
S2MID[3] I
S2MID[4] I
S2MID[5] I
S2MID[6] I
S2MID[7] I
S4END[0] I
S4END[10] I
S4END[11] I
S4END[12] I
S4END[13] I
S4END[14] I
S4END[15] I
S4END[1] I
S4END[2] I
S4END[3] I
S4END[4] I
S4END[5] I
S4END[6] I
S4END[7] I
S4END[8] I
S4END[9] I
UserCLK I
UserCLKo O

*D_NET *1 0.0119896
*CONN
*P FrameData[0] I
*I *695:I I *D gf180mcu_fd_sc_mcu7t5v0__buf_2
*I *270:I I *D gf180mcu_fd_sc_mcu7t5v0__antenna
*CAP
1 FrameData[0] 0.000727811
2 *695:I 0.000254938
3 *270:I 0
4 *1:13 0.000982749
5 *695:I *734:I 0
6 *695:I *735:I 0.000235932
7 *695:I *78:13 0.000196614
8 *695:I *83:7 3.26978e-05
9 *695:I *224:22 4.52878e-06
10 *695:I *226:20 0.000201336
11 *1:13 *734:I 0
12 *1:13 *12:9 0.00352293
13 *1:13 *76:13 0.00505196
14 *1:13 *82:5 0
15 *1:13 *83:7 5.28329e-05
16 *1:13 *177:17 0.000725264
*RES
1 FrameData[0] *1:13 24.83 
2 *1:13 *270:I 4.5 
3 *1:13 *695:I 15.552 
*END

*D_NET *2 0.00884162
*CONN
*P FrameData[10] I
*I *705:I I *D gf180mcu_fd_sc_mcu7t5v0__buf_2
*I *280:I I *D gf180mcu_fd_sc_mcu7t5v0__antenna
*CAP
1 FrameData[10] 0.0008448
2 *705:I 7.65413e-05
3 *280:I 0
4 *2:9 0.000921341
5 *705:I *720:I 0
6 *2:9 *793:I 0
7 *2:9 *3:15 0.00310873
8 *2:9 *20:15 0.0028092
9 *2:9 *32:9 0.000383623
10 *2:9 *206:20 0.00063272
11 *2:9 *224:22 6.46651e-05
*RES
1 FrameData[10] *2:9 26.046 
2 *2:9 *280:I 4.5 
3 *2:9 *705:I 5.032 
*END

*D_NET *3 0.0124442
*CONN
*P FrameData[11] I
*I *706:I I *D gf180mcu_fd_sc_mcu7t5v0__buf_2
*I *281:I I *D gf180mcu_fd_sc_mcu7t5v0__antenna
*CAP
1 FrameData[11] 0.000660114
2 *706:I 0.00020837
3 *281:I 0
4 *3:15 0.000868484
5 *706:I *817:I 7.30601e-05
6 *706:I *226:20 9.71886e-05
7 *3:15 *703:I 0.000168421
8 *3:15 *808:I 0.000905101
9 *3:15 *4:15 0.000378534
10 *3:15 *18:21 0.000161271
11 *3:15 *20:15 0.00146767
12 *3:15 *21:13 8.51705e-05
13 *3:15 *32:9 0.00286019
14 *3:15 *206:20 0.00140186
15 *2:9 *3:15 0.00310873
*RES
1 FrameData[11] *3:15 37.098 
2 *3:15 *281:I 4.5 
3 *3:15 *706:I 6.02 
*END

*D_NET *4 0.011859
*CONN
*P FrameData[12] I
*I *707:I I *D gf180mcu_fd_sc_mcu7t5v0__buf_2
*I *282:I I *D gf180mcu_fd_sc_mcu7t5v0__antenna
*CAP
1 FrameData[12] 0.00138835
2 *707:I 9.37048e-05
3 *282:I 0
4 *4:15 0.00148205
5 *707:I *839:I 0.000315094
6 *707:I *850:I 4.67723e-05
7 *707:I *9:17 2.96621e-05
8 *707:I *145:17 3.08902e-05
9 *4:15 *793:I 0.000122898
10 *4:15 *828:I 0.000293723
11 *4:15 *5:9 0.000542487
12 *4:15 *9:17 0.00198173
13 *4:15 *16:21 0.00059877
14 *4:15 *17:17 0.00431709
15 *4:15 *20:15 0.000206405
16 *4:15 *145:17 3.08902e-05
17 *4:15 *224:22 0
18 *3:15 *4:15 0.000378534
*RES
1 FrameData[12] *4:15 28.554 
2 *4:15 *282:I 4.5 
3 *4:15 *707:I 14.564 
*END

*D_NET *5 0.0092824
*CONN
*P FrameData[13] I
*I *708:I I *D gf180mcu_fd_sc_mcu7t5v0__buf_2
*I *283:I I *D gf180mcu_fd_sc_mcu7t5v0__antenna
*CAP
1 FrameData[13] 0.000787351
2 *708:I 2.73362e-05
3 *283:I 0.000215634
4 *5:9 0.00103032
5 *283:I *206:20 0.000113695
6 *283:I *224:22 5.29035e-05
7 *283:I *227:30 2.69001e-05
8 *5:9 *718:I 7.2647e-05
9 *5:9 *6:9 2.06793e-05
10 *5:9 *16:21 0.00248142
11 *5:9 *25:19 0.00385485
12 *5:9 *224:22 2.9047e-05
13 *5:9 *227:30 2.71278e-05
14 *4:15 *5:9 0.000542487
*RES
1 FrameData[13] *5:9 24.83 
2 *5:9 *283:I 6.02 
3 *5:9 *708:I 4.728 
*END

*D_NET *6 0.00955225
*CONN
*P FrameData[14] I
*I *709:I I *D gf180mcu_fd_sc_mcu7t5v0__buf_2
*I *284:I I *D gf180mcu_fd_sc_mcu7t5v0__antenna
*CAP
1 FrameData[14] 0.00094221
2 *709:I 6.2424e-05
3 *284:I 0
4 *6:9 0.00100463
5 *709:I *25:19 4.83197e-05
6 *709:I *145:17 0.000215472
7 *709:I *227:30 5.75752e-06
8 *6:9 *766:I 0.000325326
9 *6:9 *7:9 0.00175186
10 *6:9 *25:19 0.00223771
11 *6:9 *145:17 0.00293786
12 *5:9 *6:9 2.06793e-05
*RES
1 FrameData[14] *6:9 19.494 
2 *6:9 *284:I 9 
3 *6:9 *709:I 9.76 
*END

*D_NET *7 0.0122781
*CONN
*P FrameData[15] I
*I *710:I I *D gf180mcu_fd_sc_mcu7t5v0__buf_2
*I *285:I I *D gf180mcu_fd_sc_mcu7t5v0__antenna
*CAP
1 FrameData[15] 0.000648724
2 *710:I 5.46724e-05
3 *285:I 0
4 *7:9 0.000703396
5 *7:9 *292:I 0
6 *7:9 *853:I 0.00122152
7 *7:9 *8:15 0.0017208
8 *7:9 *10:21 3.2657e-05
9 *7:9 *18:21 0.00295469
10 *7:9 *145:17 0.00318281
11 *7:9 *227:30 6.97907e-06
12 *6:9 *7:9 0.00175186
*RES
1 FrameData[15] *7:9 24.83 
2 *7:9 *285:I 4.5 
3 *7:9 *710:I 4.88 
*END

*D_NET *8 0.0128975
*CONN
*P FrameData[16] I
*I *711:I I *D gf180mcu_fd_sc_mcu7t5v0__buf_2
*I *286:I I *D gf180mcu_fd_sc_mcu7t5v0__antenna
*CAP
1 FrameData[16] 0.0010557
2 *711:I 9.49587e-05
3 *286:I 0
4 *8:15 0.00115066
5 *711:I *145:17 2.17248e-05
6 *8:15 *292:I 7.94322e-05
7 *8:15 *850:I 8.55242e-05
8 *8:15 *853:I 0.00121466
9 *8:15 *9:17 0.000591462
10 *8:15 *10:21 0.00495939
11 *8:15 *18:21 0.0016607
12 *8:15 *145:17 0.000134994
13 *8:15 *172:33 0.000127522
14 *7:9 *8:15 0.0017208
*RES
1 FrameData[16] *8:15 27.338 
2 *8:15 *286:I 4.5 
3 *8:15 *711:I 5.26 
*END

*D_NET *9 0.0169654
*CONN
*P FrameData[17] I
*I *712:I I *D gf180mcu_fd_sc_mcu7t5v0__buf_2
*I *287:I I *D gf180mcu_fd_sc_mcu7t5v0__antenna
*CAP
1 FrameData[17] 0.0018813
2 *712:I 0
3 *287:I 5.46724e-05
4 *9:17 0.00193598
5 *9:17 *791:I 0.000260461
6 *9:17 *793:I 0.000458364
7 *9:17 *828:I 0.000768898
8 *9:17 *843:I 8.17277e-05
9 *9:17 *10:21 0.000593965
10 *9:17 *16:21 0.000447952
11 *9:17 *20:15 0.00635625
12 *9:17 *145:17 0.000279995
13 *9:17 *226:20 0.00124299
14 *707:I *9:17 2.96621e-05
15 *4:15 *9:17 0.00198173
16 *8:15 *9:17 0.000591462
*RES
1 FrameData[17] *9:17 44.774 
2 *9:17 *287:I 4.88 
3 *9:17 *712:I 4.5 
*END

*D_NET *10 0.016013
*CONN
*P FrameData[18] I
*I *713:I I *D gf180mcu_fd_sc_mcu7t5v0__buf_2
*I *288:I I *D gf180mcu_fd_sc_mcu7t5v0__antenna
*CAP
1 FrameData[18] 0.0019723
2 *713:I 8.54836e-05
3 *288:I 4.92552e-05
4 *10:21 0.00210704
5 *288:I *156:15 0.000178072
6 *288:I *159:13 6.5907e-05
7 *713:I *751:I 0.000172284
8 *713:I *846:I 0.000190317
9 *713:I *847:I 3.60772e-05
10 *713:I *157:17 0.000239852
11 *10:21 *751:I 8.84331e-05
12 *10:21 *777:I 7.17567e-05
13 *10:21 *836:I 7.83779e-05
14 *10:21 *843:I 0.000111297
15 *10:21 *846:I 0.00037861
16 *10:21 *864:I 0.000140531
17 *10:21 *11:17 0.000409414
18 *10:21 *13:9 1.84355e-05
19 *10:21 *80:21 0.00101198
20 *10:21 *143:19 0.000232728
21 *10:21 *153:13 0.00134249
22 *10:21 *157:17 0
23 *10:21 *159:13 6.20375e-05
24 *10:21 *172:33 0.00136036
25 *10:21 *227:30 2.39171e-05
26 *7:9 *10:21 3.2657e-05
27 *8:15 *10:21 0.00495939
28 *9:17 *10:21 0.000593965
*RES
1 FrameData[18] *10:21 45.094 
2 *10:21 *288:I 9.532 
3 *10:21 *713:I 10.216 
*END

*D_NET *11 0.0141346
*CONN
*P FrameData[19] I
*I *289:I I *D gf180mcu_fd_sc_mcu7t5v0__antenna
*I *714:I I *D gf180mcu_fd_sc_mcu7t5v0__buf_2
*CAP
1 FrameData[19] 0.00136839
2 *289:I 0
3 *714:I 0.000154887
4 *11:17 0.00152328
5 *714:I *786:I 5.85692e-05
6 *714:I *865:I 0.000199473
7 *714:I *145:17 0.000151417
8 *714:I *251:20 3.40956e-05
9 *11:17 *754:I 0.000222333
10 *11:17 *756:I 4.47565e-05
11 *11:17 *758:I 0.000111727
12 *11:17 *789:I 0.000228137
13 *11:17 *842:I 0.000389422
14 *11:17 *844:I 0.00245375
15 *11:17 *847:I 0.000111867
16 *11:17 *866:I 8.97754e-05
17 *11:17 *13:9 0.000203857
18 *11:17 *14:13 0.0009151
19 *11:17 *80:21 0.000862139
20 *11:17 *142:9 0.000168846
21 *11:17 *145:17 0.000588292
22 *11:17 *153:13 0.00015961
23 *11:17 *155:21 9.98056e-05
24 *11:17 *157:17 0.00134645
25 *11:17 *260:28 0.00223917
26 *10:21 *11:17 0.000409414
*RES
1 FrameData[19] *11:17 28.326 
2 *11:17 *714:I 15.02 
3 *11:17 *289:I 4.5 
*END

*D_NET *12 0.0100127
*CONN
*P FrameData[1] I
*I *696:I I *D gf180mcu_fd_sc_mcu7t5v0__buf_2
*I *271:I I *D gf180mcu_fd_sc_mcu7t5v0__antenna
*CAP
1 FrameData[1] 0.000770557
2 *696:I 5.46724e-05
3 *271:I 0
4 *12:9 0.000825229
5 *12:9 *23:11 0.00093781
6 *12:9 *76:13 0.00019209
7 *12:9 *79:17 0.0033391
8 *12:9 *83:7 2.32898e-05
9 *12:9 *84:9 0
10 *12:9 *259:16 0.000346981
11 *1:13 *12:9 0.00352293
*RES
1 FrameData[1] *12:9 25.438 
2 *12:9 *271:I 4.5 
3 *12:9 *696:I 4.88 
*END

*D_NET *13 0.0120991
*CONN
*P FrameData[20] I
*I *290:I I *D gf180mcu_fd_sc_mcu7t5v0__antenna
*I *715:I I *D gf180mcu_fd_sc_mcu7t5v0__buf_2
*CAP
1 FrameData[20] 0.00144156
2 *290:I 0
3 *715:I 0.000116775
4 *13:9 0.00155834
5 *715:I *326:I 0.00020108
6 *715:I *847:I 0.000155858
7 *715:I *865:I 0.000263004
8 *715:I *157:17 7.21523e-05
9 *13:9 N2BEG[4] 5.52776e-05
10 *13:9 *716:I 4.78829e-05
11 *13:9 *835:I 0.000759093
12 *13:9 *837:I 0.000121618
13 *13:9 *841:I 0.00173718
14 *13:9 *847:I 0.000291449
15 *13:9 *855:I 0.000169025
16 *13:9 *14:13 0.00243732
17 *13:9 *16:21 0
18 *13:9 *157:17 0.000101794
19 *13:9 *251:20 0.00234738
20 *10:21 *13:9 1.84355e-05
21 *11:17 *13:9 0.000203857
*RES
1 FrameData[20] *13:9 25.742 
2 *13:9 *715:I 15.172 
3 *13:9 *290:I 4.5 
*END

*D_NET *14 0.0114749
*CONN
*P FrameData[21] I
*I *716:I I *D gf180mcu_fd_sc_mcu7t5v0__buf_2
*I *291:I I *D gf180mcu_fd_sc_mcu7t5v0__antenna
*CAP
1 FrameData[21] 0.000977338
2 *716:I 3.76733e-06
3 *291:I 0
4 *14:13 0.000981106
5 *716:I *251:20 4.4998e-05
6 *716:I *260:28 0.000181986
7 *14:13 *756:I 0.0003786
8 *14:13 *835:I 0.000759093
9 *14:13 *841:I 0.00173718
10 *14:13 *844:I 0.000955172
11 *14:13 *15:13 8.93884e-05
12 *14:13 *16:21 0.000155213
13 *14:13 *18:21 7.08059e-05
14 *14:13 *19:17 9.35917e-05
15 *14:13 *155:21 0.00127598
16 *14:13 *260:28 0.000370364
17 *11:17 *14:13 0.0009151
18 *13:9 *716:I 4.78829e-05
19 *13:9 *14:13 0.00243732
*RES
1 FrameData[21] *14:13 30.166 
2 *14:13 *291:I 9 
3 *14:13 *716:I 9.532 
*END

*D_NET *15 0.0150744
*CONN
*P FrameData[22] I
*I *717:I I *D gf180mcu_fd_sc_mcu7t5v0__buf_2
*I *292:I I *D gf180mcu_fd_sc_mcu7t5v0__antenna
*CAP
1 FrameData[22] 0.00148792
2 *717:I 4.98712e-05
3 *292:I 0.00012652
4 *15:13 0.00166431
5 *292:I *850:I 8.55327e-05
6 *292:I *145:17 1.61995e-05
7 *717:I *145:17 8.81341e-06
8 *717:I *172:33 0.000117908
9 *717:I *227:30 4.06416e-05
10 *15:13 *832:I 0.00247709
11 *15:13 *836:I 0.000326837
12 *15:13 *837:I 0.000336119
13 *15:13 *840:I 0.00192805
14 *15:13 *843:I 6.43353e-05
15 *15:13 *866:I 6.17482e-06
16 *15:13 *16:21 0.00248228
17 *15:13 *17:17 0
18 *15:13 *142:9 0.000641165
19 *15:13 *143:19 0.00216642
20 *15:13 *172:33 0.000484255
21 *15:13 *227:30 0.000395091
22 *7:9 *292:I 0
23 *8:15 *292:I 7.94322e-05
24 *14:13 *15:13 8.93884e-05
*RES
1 FrameData[22] *15:13 33.206 
2 *15:13 *292:I 9.988 
3 *15:13 *717:I 9.608 
*END

*D_NET *16 0.0123908
*CONN
*P FrameData[23] I
*I *718:I I *D gf180mcu_fd_sc_mcu7t5v0__buf_2
*I *293:I I *D gf180mcu_fd_sc_mcu7t5v0__antenna
*CAP
1 FrameData[23] 0.00176781
2 *718:I 2.51187e-05
3 *293:I 0
4 *16:21 0.00179292
5 *718:I *17:17 7.9795e-05
6 *718:I *25:19 1.42348e-05
7 *16:21 N1BEG[1] 0.000199995
8 *16:21 *324:I 7.61651e-05
9 *16:21 *749:I 0.000196843
10 *16:21 *837:I 0.000174758
11 *16:21 *843:I 0.000181242
12 *16:21 *17:17 0.00156001
13 *16:21 *18:21 3.36925e-05
14 *16:21 *25:11 4.99519e-05
15 *4:15 *16:21 0.00059877
16 *5:9 *718:I 7.2647e-05
17 *5:9 *16:21 0.00248142
18 *9:17 *16:21 0.000447952
19 *13:9 *16:21 0
20 *14:13 *16:21 0.000155213
21 *15:13 *16:21 0.00248228
*RES
1 FrameData[23] *16:21 43.878 
2 *16:21 *293:I 9 
3 *16:21 *718:I 9.532 
*END

*D_NET *17 0.0168322
*CONN
*P FrameData[24] I
*I *719:I I *D gf180mcu_fd_sc_mcu7t5v0__buf_2
*I *294:I I *D gf180mcu_fd_sc_mcu7t5v0__antenna
*CAP
1 FrameData[24] 0.00295908
2 *719:I 4.22318e-05
3 *294:I 0.000151279
4 *17:17 0.00315259
5 *294:I *794:I 0.000101775
6 *294:I *806:I 7.83779e-05
7 *294:I *817:I 0.000181504
8 *719:I *794:I 7.32209e-05
9 *719:I *806:I 0.000117908
10 *719:I *224:22 3.54426e-05
11 *17:17 N1BEG[0] 6.03292e-05
12 *17:17 *353:I 0.000215472
13 *17:17 *795:I 0.000310589
14 *17:17 *806:I 8.15645e-05
15 *17:17 *828:I 1.12495e-05
16 *17:17 *836:I 0.00120255
17 *17:17 *18:21 0.000176649
18 *17:17 *19:17 0
19 *17:17 *25:19 1.54681e-05
20 *17:17 *171:29 0.001541
21 *17:17 *224:22 0.000366983
22 *718:I *17:17 7.9795e-05
23 *4:15 *17:17 0.00431709
24 *15:13 *17:17 0
25 *16:21 *17:17 0.00156001
*RES
1 FrameData[24] *17:17 40.35 
2 *17:17 *294:I 10.444 
3 *17:17 *719:I 9.608 
*END

*D_NET *18 0.0167122
*CONN
*P FrameData[25] I
*I *720:I I *D gf180mcu_fd_sc_mcu7t5v0__buf_2
*I *295:I I *D gf180mcu_fd_sc_mcu7t5v0__antenna
*CAP
1 FrameData[25] 0.00211519
2 *720:I 7.65413e-05
3 *295:I 0
4 *18:25 0.000117923
5 *18:21 0.00215657
6 *18:21 *703:I 0.000328935
7 *18:21 *808:I 9.5719e-05
8 *18:21 *19:17 0.000176649
9 *18:21 *21:13 0.00242627
10 *18:21 *25:11 0
11 *18:21 *32:9 0.00353147
12 *18:21 *80:21 0.000616207
13 *18:25 *224:22 1.29518e-05
14 *18:25 *226:20 0
15 *705:I *720:I 0