*SPEF "ieee 1481-1999"
*DESIGN "W_IO4"
*DATE "22:49:59 Friday December 05, 2025"
*VENDOR "The OpenROAD Project"
*PROGRAM "OpenROAD"
*VERSION "341650e72dad0dc8571822ff8c5d9c5e365327f7"
*DESIGN_FLOW "NAME_SCOPE LOCAL" "PIN_CAP NONE"
*DIVIDER /
*DELIMITER :
*BUS_DELIMITER []
*T_UNIT 1 NS
*C_UNIT 1 PF
*R_UNIT 1 OHM
*L_UNIT 1 HENRY

*NAME_MAP
*1 A_I_top
*2 A_O_top
*3 A_T_top
*4 A_config_C_bit0
*5 A_config_C_bit1
*6 A_config_C_bit2
*7 A_config_C_bit3
*8 B_I_top
*9 B_O_top
*10 B_T_top
*11 B_config_C_bit0
*12 B_config_C_bit1
*13 B_config_C_bit2
*14 B_config_C_bit3
*15 C_I_top
*16 C_O_top
*17 C_T_top
*18 C_config_C_bit0
*19 C_config_C_bit1
*20 C_config_C_bit2
*21 C_config_C_bit3
*22 D_I_top
*23 D_O_top
*24 D_T_top
*25 D_config_C_bit0
*26 D_config_C_bit1
*27 D_config_C_bit2
*28 D_config_C_bit3
*29 E1BEG[0]
*30 E1BEG[1]
*31 E1BEG[2]
*32 E1BEG[3]
*33 E2BEG[0]
*34 E2BEG[1]
*35 E2BEG[2]
*36 E2BEG[3]
*37 E2BEG[4]
*38 E2BEG[5]
*39 E2BEG[6]
*40 E2BEG[7]
*41 E2BEGb[0]
*42 E2BEGb[1]
*43 E2BEGb[2]
*44 E2BEGb[3]
*45 E2BEGb[4]
*46 E2BEGb[5]
*47 E2BEGb[6]
*48 E2BEGb[7]
*49 E6BEG[0]
*50 E6BEG[10]
*51 E6BEG[11]
*52 E6BEG[1]
*53 E6BEG[2]
*54 E6BEG[3]
*55 E6BEG[4]
*56 E6BEG[5]
*57 E6BEG[6]
*58 E6BEG[7]
*59 E6BEG[8]
*60 E6BEG[9]
*61 EE4BEG[0]
*62 EE4BEG[10]
*63 EE4BEG[11]
*64 EE4BEG[12]
*65 EE4BEG[13]
*66 EE4BEG[14]
*67 EE4BEG[15]
*68 EE4BEG[1]
*69 EE4BEG[2]
*70 EE4BEG[3]
*71 EE4BEG[4]
*72 EE4BEG[5]
*73 EE4BEG[6]
*74 EE4BEG[7]
*75 EE4BEG[8]
*76 EE4BEG[9]
*77 FrameData[0]
*78 FrameData[10]
*79 FrameData[11]
*80 FrameData[12]
*81 FrameData[13]
*82 FrameData[14]
*83 FrameData[15]
*84 FrameData[16]
*85 FrameData[17]
*86 FrameData[18]
*87 FrameData[19]
*88 FrameData[1]
*89 FrameData[20]
*90 FrameData[21]
*91 FrameData[22]
*92 FrameData[23]
*93 FrameData[24]
*94 FrameData[25]
*95 FrameData[26]
*96 FrameData[27]
*97 FrameData[28]
*98 FrameData[29]
*99 FrameData[2]
*100 FrameData[30]
*101 FrameData[31]
*102 FrameData[3]
*103 FrameData[4]
*104 FrameData[5]
*105 FrameData[6]
*106 FrameData[7]
*107 FrameData[8]
*108 FrameData[9]
*109 FrameData_O[0]
*110 FrameData_O[10]
*111 FrameData_O[11]
*112 FrameData_O[12]
*113 FrameData_O[13]
*114 FrameData_O[14]
*115 FrameData_O[15]
*116 FrameData_O[16]
*117 FrameData_O[17]
*118 FrameData_O[18]
*119 FrameData_O[19]
*120 FrameData_O[1]
*121 FrameData_O[20]
*122 FrameData_O[21]
*123 FrameData_O[22]
*124 FrameData_O[23]
*125 FrameData_O[24]
*126 FrameData_O[25]
*127 FrameData_O[26]
*128 FrameData_O[27]
*129 FrameData_O[28]
*130 FrameData_O[29]
*131 FrameData_O[2]
*132 FrameData_O[30]
*133 FrameData_O[31]
*134 FrameData_O[3]
*135 FrameData_O[4]
*136 FrameData_O[5]
*137 FrameData_O[6]
*138 FrameData_O[7]
*139 FrameData_O[8]
*140 FrameData_O[9]
*141 FrameStrobe[0]
*142 FrameStrobe[10]
*143 FrameStrobe[11]
*144 FrameStrobe[12]
*145 FrameStrobe[13]
*146 FrameStrobe[14]
*147 FrameStrobe[15]
*148 FrameStrobe[16]
*149 FrameStrobe[17]
*150 FrameStrobe[18]
*151 FrameStrobe[19]
*152 FrameStrobe[1]
*153 FrameStrobe[2]
*154 FrameStrobe[3]
*155 FrameStrobe[4]
*156 FrameStrobe[5]
*157 FrameStrobe[6]
*158 FrameStrobe[7]
*159 FrameStrobe[8]
*160 FrameStrobe[9]
*161 FrameStrobe_O[0]
*162 FrameStrobe_O[10]
*163 FrameStrobe_O[11]
*164 FrameStrobe_O[12]
*165 FrameStrobe_O[13]
*166 FrameStrobe_O[14]
*167 FrameStrobe_O[15]
*168 FrameStrobe_O[16]
*169 FrameStrobe_O[17]
*170 FrameStrobe_O[18]
*171 FrameStrobe_O[19]
*172 FrameStrobe_O[1]
*173 FrameStrobe_O[2]
*174 FrameStrobe_O[3]
*175 FrameStrobe_O[4]
*176 FrameStrobe_O[5]
*177 FrameStrobe_O[6]
*178 FrameStrobe_O[7]
*179 FrameStrobe_O[8]
*180 FrameStrobe_O[9]
*181 UserCLK
*182 UserCLKo
*185 W1END[0]
*186 W1END[1]
*187 W1END[2]
*188 W1END[3]
*189 W2END[0]
*190 W2END[1]
*191 W2END[2]
*192 W2END[3]
*193 W2END[4]
*194 W2END[5]
*195 W2END[6]
*196 W2END[7]
*197 W2MID[0]
*198 W2MID[1]
*199 W2MID[2]
*200 W2MID[3]
*201 W2MID[4]
*202 W2MID[5]
*203 W2MID[6]
*204 W2MID[7]
*205 W6END[0]
*206 W6END[10]
*207 W6END[11]
*208 W6END[1]
*209 W6END[2]
*210 W6END[3]
*211 W6END[4]
*212 W6END[5]
*213 W6END[6]
*214 W6END[7]
*215 W6END[8]
*216 W6END[9]
*217 WW4END[0]
*218 WW4END[10]
*219 WW4END[11]
*220 WW4END[12]
*221 WW4END[13]
*222 WW4END[14]
*223 WW4END[15]
*224 WW4END[1]
*225 WW4END[2]
*226 WW4END[3]
*227 WW4END[4]
*228 WW4END[5]
*229 WW4END[6]
*230 WW4END[7]
*231 WW4END[8]
*232 WW4END[9]
*233 Inst_A_IO_1_bidirectional_frame_config_pass\.Q
*234 Inst_B_IO_1_bidirectional_frame_config_pass\.Q
*235 Inst_C_IO_1_bidirectional_frame_config_pass\.Q
*236 Inst_D_IO_1_bidirectional_frame_config_pass\.Q
*237 Inst_W_IO4_ConfigMem\.Inst_frame0_bit0\.Q
*238 Inst_W_IO4_ConfigMem\.Inst_frame0_bit1\.Q
*239 Inst_W_IO4_ConfigMem\.Inst_frame0_bit10\.Q
*240 Inst_W_IO4_ConfigMem\.Inst_frame0_bit11\.Q
*241 Inst_W_IO4_ConfigMem\.Inst_frame0_bit12\.Q
*242 Inst_W_IO4_ConfigMem\.Inst_frame0_bit13\.Q
*243 Inst_W_IO4_ConfigMem\.Inst_frame0_bit14\.Q
*244 Inst_W_IO4_ConfigMem\.Inst_frame0_bit15\.Q
*245 Inst_W_IO4_ConfigMem\.Inst_frame0_bit16\.Q
*246 Inst_W_IO4_ConfigMem\.Inst_frame0_bit17\.Q
*247 Inst_W_IO4_ConfigMem\.Inst_frame0_bit18\.Q
*248 Inst_W_IO4_ConfigMem\.Inst_frame0_bit19\.Q
*249 Inst_W_IO4_ConfigMem\.Inst_frame0_bit2\.Q
*250 Inst_W_IO4_ConfigMem\.Inst_frame0_bit20\.Q
*251 Inst_W_IO4_ConfigMem\.Inst_frame0_bit21\.Q
*252 Inst_W_IO4_ConfigMem\.Inst_frame0_bit22\.Q
*253 Inst_W_IO4_ConfigMem\.Inst_frame0_bit23\.Q
*254 Inst_W_IO4_ConfigMem\.Inst_frame0_bit24\.Q
*255 Inst_W_IO4_ConfigMem\.Inst_frame0_bit25\.Q
*256 Inst_W_IO4_ConfigMem\.Inst_frame0_bit26\.Q
*257 Inst_W_IO4_ConfigMem\.Inst_frame0_bit27\.Q
*258 Inst_W_IO4_ConfigMem\.Inst_frame0_bit28\.Q
*259 Inst_W_IO4_ConfigMem\.Inst_frame0_bit29\.Q
*260 Inst_W_IO4_ConfigMem\.Inst_frame0_bit3\.Q
*261 Inst_W_IO4_ConfigMem\.Inst_frame0_bit30\.Q
*262 Inst_W_IO4_ConfigMem\.Inst_frame0_bit31\.Q
*263 Inst_W_IO4_ConfigMem\.Inst_frame0_bit4\.Q
*264 Inst_W_IO4_ConfigMem\.Inst_frame0_bit5\.Q
*265 Inst_W_IO4_ConfigMem\.Inst_frame0_bit6\.Q
*266 Inst_W_IO4_ConfigMem\.Inst_frame0_bit7\.Q
*267 Inst_W_IO4_ConfigMem\.Inst_frame0_bit8\.Q
*268 Inst_W_IO4_ConfigMem\.Inst_frame0_bit9\.Q
*269 Inst_W_IO4_ConfigMem\.Inst_frame1_bit0\.Q
*270 Inst_W_IO4_ConfigMem\.Inst_frame1_bit1\.Q
*271 Inst_W_IO4_ConfigMem\.Inst_frame1_bit10\.Q
*272 Inst_W_IO4_ConfigMem\.Inst_frame1_bit11\.Q
*273 Inst_W_IO4_ConfigMem\.Inst_frame1_bit12\.Q
*274 Inst_W_IO4_ConfigMem\.Inst_frame1_bit13\.Q
*275 Inst_W_IO4_ConfigMem\.Inst_frame1_bit14\.Q
*276 Inst_W_IO4_ConfigMem\.Inst_frame1_bit15\.Q
*277 Inst_W_IO4_ConfigMem\.Inst_frame1_bit16\.Q
*278 Inst_W_IO4_ConfigMem\.Inst_frame1_bit17\.Q
*279 Inst_W_IO4_ConfigMem\.Inst_frame1_bit18\.Q
*280 Inst_W_IO4_ConfigMem\.Inst_frame1_bit19\.Q
*281 Inst_W_IO4_ConfigMem\.Inst_frame1_bit2\.Q
*282 Inst_W_IO4_ConfigMem\.Inst_frame1_bit20\.Q
*283 Inst_W_IO4_ConfigMem\.Inst_frame1_bit21\.Q
*284 Inst_W_IO4_ConfigMem\.Inst_frame1_bit22\.Q
*285 Inst_W_IO4_ConfigMem\.Inst_frame1_bit23\.Q
*286 Inst_W_IO4_ConfigMem\.Inst_frame1_bit24\.Q
*287 Inst_W_IO4_ConfigMem\.Inst_frame1_bit25\.Q
*288 Inst_W_IO4_ConfigMem\.Inst_frame1_bit26\.Q
*289 Inst_W_IO4_ConfigMem\.Inst_frame1_bit27\.Q
*290 Inst_W_IO4_ConfigMem\.Inst_frame1_bit28\.Q
*291 Inst_W_IO4_ConfigMem\.Inst_frame1_bit29\.Q
*292 Inst_W_IO4_ConfigMem\.Inst_frame1_bit3\.Q
*293 Inst_W_IO4_ConfigMem\.Inst_frame1_bit30\.Q
*294 Inst_W_IO4_ConfigMem\.Inst_frame1_bit31\.Q
*295 Inst_W_IO4_ConfigMem\.Inst_frame1_bit4\.Q
*296 Inst_W_IO4_ConfigMem\.Inst_frame1_bit5\.Q
*297 Inst_W_IO4_ConfigMem\.Inst_frame1_bit6\.Q
*298 Inst_W_IO4_ConfigMem\.Inst_frame1_bit7\.Q
*299 Inst_W_IO4_ConfigMem\.Inst_frame1_bit8\.Q
*300 Inst_W_IO4_ConfigMem\.Inst_frame1_bit9\.Q
*301 Inst_W_IO4_ConfigMem\.Inst_frame2_bit0\.Q
*302 Inst_W_IO4_ConfigMem\.Inst_frame2_bit1\.Q
*303 Inst_W_IO4_ConfigMem\.Inst_frame2_bit10\.Q
*304 Inst_W_IO4_ConfigMem\.Inst_frame2_bit11\.Q
*305 Inst_W_IO4_ConfigMem\.Inst_frame2_bit12\.Q
*306 Inst_W_IO4_ConfigMem\.Inst_frame2_bit13\.Q
*307 Inst_W_IO4_ConfigMem\.Inst_frame2_bit14\.Q
*308 Inst_W_IO4_ConfigMem\.Inst_frame2_bit15\.Q
*309 Inst_W_IO4_ConfigMem\.Inst_frame2_bit16\.Q
*310 Inst_W_IO4_ConfigMem\.Inst_frame2_bit17\.Q
*311 Inst_W_IO4_ConfigMem\.Inst_frame2_bit18\.Q
*312 Inst_W_IO4_ConfigMem\.Inst_frame2_bit19\.Q
*313 Inst_W_IO4_ConfigMem\.Inst_frame2_bit2\.Q
*314 Inst_W_IO4_ConfigMem\.Inst_frame2_bit20\.Q
*315 Inst_W_IO4_ConfigMem\.Inst_frame2_bit21\.Q
*316 Inst_W_IO4_ConfigMem\.Inst_frame2_bit22\.Q
*317 Inst_W_IO4_ConfigMem\.Inst_frame2_bit23\.Q
*318 Inst_W_IO4_ConfigMem\.Inst_frame2_bit24\.Q
*319 Inst_W_IO4_ConfigMem\.Inst_frame2_bit25\.Q
*320 Inst_W_IO4_ConfigMem\.Inst_frame2_bit26\.Q
*321 Inst_W_IO4_ConfigMem\.Inst_frame2_bit27\.Q
*322 Inst_W_IO4_ConfigMem\.Inst_frame2_bit28\.Q
*323 Inst_W_IO4_ConfigMem\.Inst_frame2_bit29\.Q
*324 Inst_W_IO4_ConfigMem\.Inst_frame2_bit3\.Q
*325 Inst_W_IO4_ConfigMem\.Inst_frame2_bit30\.Q
*326 Inst_W_IO4_ConfigMem\.Inst_frame2_bit31\.Q
*327 Inst_W_IO4_ConfigMem\.Inst_frame2_bit4\.Q
*328 Inst_W_IO4_ConfigMem\.Inst_frame2_bit5\.Q
*329 Inst_W_IO4_ConfigMem\.Inst_frame2_bit6\.Q
*330 Inst_W_IO4_ConfigMem\.Inst_frame2_bit7\.Q
*331 Inst_W_IO4_ConfigMem\.Inst_frame2_bit8\.Q
*332 Inst_W_IO4_ConfigMem\.Inst_frame2_bit9\.Q
*333 Inst_W_IO4_ConfigMem\.Inst_frame3_bit10\.Q
*334 Inst_W_IO4_ConfigMem\.Inst_frame3_bit11\.Q
*335 Inst_W_IO4_ConfigMem\.Inst_frame3_bit12\.Q
*336 Inst_W_IO4_ConfigMem\.Inst_frame3_bit13\.Q
*337 Inst_W_IO4_ConfigMem\.Inst_frame3_bit14\.Q
*338 Inst_W_IO4_ConfigMem\.Inst_frame3_bit15\.Q
*339 Inst_W_IO4_ConfigMem\.Inst_frame3_bit16\.Q
*340 Inst_W_IO4_ConfigMem\.Inst_frame3_bit17\.Q
*341 Inst_W_IO4_ConfigMem\.Inst_frame3_bit18\.Q
*342 Inst_W_IO4_ConfigMem\.Inst_frame3_bit19\.Q
*343 Inst_W_IO4_ConfigMem\.Inst_frame3_bit20\.Q
*344 Inst_W_IO4_ConfigMem\.Inst_frame3_bit21\.Q
*345 Inst_W_IO4_ConfigMem\.Inst_frame3_bit22\.Q
*346 Inst_W_IO4_ConfigMem\.Inst_frame3_bit23\.Q
*347 Inst_W_IO4_ConfigMem\.Inst_frame3_bit24\.Q
*348 Inst_W_IO4_ConfigMem\.Inst_frame3_bit25\.Q
*349 Inst_W_IO4_ConfigMem\.Inst_frame3_bit26\.Q
*350 Inst_W_IO4_ConfigMem\.Inst_frame3_bit27\.Q
*351 Inst_W_IO4_ConfigMem\.Inst_frame3_bit28\.Q
*352 Inst_W_IO4_ConfigMem\.Inst_frame3_bit29\.Q
*353 Inst_W_IO4_ConfigMem\.Inst_frame3_bit30\.Q
*354 Inst_W_IO4_ConfigMem\.Inst_frame3_bit31\.Q
*355 Inst_W_IO4_ConfigMem\.Inst_frame3_bit4\.Q
*356 Inst_W_IO4_ConfigMem\.Inst_frame3_bit5\.Q
*357 Inst_W_IO4_ConfigMem\.Inst_frame3_bit6\.Q
*358 Inst_W_IO4_ConfigMem\.Inst_frame3_bit7\.Q
*359 Inst_W_IO4_ConfigMem\.Inst_frame3_bit8\.Q
*360 Inst_W_IO4_ConfigMem\.Inst_frame3_bit9\.Q
*361 Inst_W_IO4_switch_matrix\.E1BEG0
*362 Inst_W_IO4_switch_matrix\.E1BEG1
*363 Inst_W_IO4_switch_matrix\.E1BEG2
*364 Inst_W_IO4_switch_matrix\.E1BEG3
*365 Inst_W_IO4_switch_matrix\.E2BEG0
*366 Inst_W_IO4_switch_matrix\.E2BEG1
*367 Inst_W_IO4_switch_matrix\.E2BEG2
*368 Inst_W_IO4_switch_matrix\.E2BEG3
*369 Inst_W_IO4_switch_matrix\.E2BEG4
*370 Inst_W_IO4_switch_matrix\.E2BEG5
*371 Inst_W_IO4_switch_matrix\.E2BEG6
*372 Inst_W_IO4_switch_matrix\.E2BEG7
*373 Inst_W_IO4_switch_matrix\.E2BEGb0
*374 Inst_W_IO4_switch_matrix\.E2BEGb1
*375 Inst_W_IO4_switch_matrix\.E2BEGb2
*376 Inst_W_IO4_switch_matrix\.E2BEGb3
*377 Inst_W_IO4_switch_matrix\.E2BEGb4
*378 Inst_W_IO4_switch_matrix\.E2BEGb5
*379 Inst_W_IO4_switch_matrix\.E2BEGb6
*380 Inst_W_IO4_switch_matrix\.E2BEGb7
*381 Inst_W_IO4_switch_matrix\.E6BEG0
*382 Inst_W_IO4_switch_matrix\.E6BEG1
*383 Inst_W_IO4_switch_matrix\.E6BEG10
*384 Inst_W_IO4_switch_matrix\.E6BEG11
*385 Inst_W_IO4_switch_matrix\.E6BEG2
*386 Inst_W_IO4_switch_matrix\.E6BEG3
*387 Inst_W_IO4_switch_matrix\.E6BEG4
*388 Inst_W_IO4_switch_matrix\.E6BEG5
*389 Inst_W_IO4_switch_matrix\.E6BEG6
*390 Inst_W_IO4_switch_matrix\.E6BEG7
*391 Inst_W_IO4_switch_matrix\.E6BEG8
*392 Inst_W_IO4_switch_matrix\.E6BEG9
*393 Inst_W_IO4_switch_matrix\.EE4BEG0
*394 Inst_W_IO4_switch_matrix\.EE4BEG1
*395 Inst_W_IO4_switch_matrix\.EE4BEG10
*396 Inst_W_IO4_switch_matrix\.EE4BEG11
*397 Inst_W_IO4_switch_matrix\.EE4BEG12
*398 Inst_W_IO4_switch_matrix\.EE4BEG13
*399 Inst_W_IO4_switch_matrix\.EE4BEG14
*400 Inst_W_IO4_switch_matrix\.EE4BEG15
*401 Inst_W_IO4_switch_matrix\.EE4BEG2
*402 Inst_W_IO4_switch_matrix\.EE4BEG3
*403 Inst_W_IO4_switch_matrix\.EE4BEG4
*404 Inst_W_IO4_switch_matrix\.EE4BEG5
*405 Inst_W_IO4_switch_matrix\.EE4BEG6
*406 Inst_W_IO4_switch_matrix\.EE4BEG7
*407 Inst_W_IO4_switch_matrix\.EE4BEG8
*408 Inst_W_IO4_switch_matrix\.EE4BEG9
*409 UserCLK_regs
*410 _000_
*411 _001_
*412 _002_
*413 _003_
*414 _004_
*415 _005_
*416 _006_
*417 _007_
*418 _008_
*419 _009_
*420 _010_
*421 _011_
*422 _012_
*423 _013_
*424 _014_
*425 _015_
*426 _016_
*427 _017_
*428 _018_
*429 _019_
*430 _020_
*431 _021_
*432 _022_
*433 _023_
*434 _024_
*435 _025_
*436 _026_
*437 _027_
*438 _028_
*439 _029_
*440 _030_
*441 _031_
*442 _032_
*443 _033_
*444 _034_
*445 _035_
*446 _036_
*447 _037_
*448 _038_
*449 _039_
*450 _040_
*451 _041_
*452 _042_
*453 _043_
*454 _044_
*455 _045_
*456 _046_
*457 _047_
*458 _048_
*459 _049_
*460 _050_
*461 _051_
*462 _052_
*463 _053_
*464 _054_
*465 _055_
*466 _056_
*467 _057_
*468 _058_
*469 _059_
*470 _060_
*471 _061_
*472 _062_
*473 _063_
*474 _064_
*475 _065_
*476 _066_
*477 _067_
*478 _068_
*479 _069_
*480 _070_
*481 _071_
*482 _072_
*483 _073_
*484 _074_
*485 _075_
*486 _076_
*487 _077_
*488 clknet_0_UserCLK
*489 clknet_0_UserCLK_regs
*490 clknet_1_0__leaf_UserCLK
*491 clknet_1_0__leaf_UserCLK_regs
*492 clknet_1_1__leaf_UserCLK_regs
*493 net1
*494 net10
*495 net100
*496 net101
*497 net102
*498 net103
*499 net104
*500 net105
*501 net106
*502 net107
*503 net108
*504 net109
*505 net11
*506 net110
*507 net111
*508 net112
*509 net113
*510 net114
*511 net115
*512 net116
*513 net117
*514 net118
*515 net119
*516 net12
*517 net120
*518 net121
*519 net122
*520 net123
*521 net124
*522 net125
*523 net126
*524 net127
*525 net128
*526 net129
*527 net13
*528 net130
*529 net131
*530 net132
*531 net133
*532 net134
*533 net135
*534 net136
*535 net137
*536 net138
*537 net139
*538 net14
*539 net140
*540 net141
*541 net142
*542 net143
*543 net144
*544 net145
*545 net15
*546 net16
*547 net17
*548 net18
*549 net19
*550 net2
*551 net20
*552 net21
*553 net22
*554 net23
*555 net24
*556 net25
*557 net26
*558 net27
*559 net28
*560 net29
*561 net3
*562 net30
*563 net31
*564 net32
*565 net33
*566 net34
*567 net35
*568 net36
*569 net37
*570 net38
*571 net39
*572 net4
*573 net40
*574 net41
*575 net42
*576 net43
*577 net44
*578 net45
*579 net46
*580 net47
*581 net48
*582 net49
*583 net5
*584 net50
*585 net51
*586 net52
*587 net53
*588 net54
*589 net55
*590 net56
*591 net57
*592 net58
*593 net59
*594 net6
*595 net60
*596 net61
*597 net62
*598 net63
*599 net64
*600 net65
*601 net66
*602 net67
*603 net68
*604 net69
*605 net7
*606 net70
*607 net71
*608 net72
*609 net73
*610 net74
*611 net75
*612 net76
*613 net77
*614 net78
*615 net79
*616 net8
*617 net80
*618 net81
*619 net82
*620 net83
*621 net84
*622 net85
*623 net86
*624 net87
*625 net88
*626 net89
*627 net9
*628 net90
*629 net91
*630 net92
*631 net93
*632 net94
*633 net95
*634 net96
*635 net97
*636 net98
*637 net99
*638 FILLER_0_104
*639 FILLER_0_138
*640 FILLER_0_172
*641 FILLER_0_2
*642 FILLER_0_206
*643 FILLER_0_240
*644 FILLER_0_36
*645 FILLER_0_70
*646 FILLER_10_121
*647 FILLER_10_123
*648 FILLER_10_164
*649 FILLER_10_172
*650 FILLER_10_174
*651 FILLER_10_177
*652 FILLER_10_30
*653 FILLER_10_34
*654 FILLER_10_53
*655 FILLER_10_83
*656 FILLER_11_124
*657 FILLER_11_150
*658 FILLER_11_152
*659 FILLER_11_185
*660 FILLER_11_201
*661 FILLER_11_209
*662 FILLER_11_212
*663 FILLER_11_228
*664 FILLER_11_236
*665 FILLER_11_240
*666 FILLER_11_30
*667 FILLER_11_34
*668 FILLER_11_55
*669 FILLER_11_66
*670 FILLER_11_72
*671 FILLER_12_119
*672 FILLER_12_121
*673 FILLER_12_177
*674 FILLER_12_2
*675 FILLER_12_29
*676 FILLER_12_33
*677 FILLER_12_6
*678 FILLER_12_69
*679 FILLER_12_8
*680 FILLER_12_86
*681 FILLER_13_123
*682 FILLER_13_127
*683 FILLER_13_129
*684 FILLER_13_136
*685 FILLER_13_148
*686 FILLER_13_150
*687 FILLER_13_183
*688 FILLER_13_199
*689 FILLER_13_2
*690 FILLER_13_208
*691 FILLER_13_212
*692 FILLER_13_228
*693 FILLER_13_236
*694 FILLER_13_240
*695 FILLER_13_34
*696 FILLER_13_84
*697 FILLER_13_88
*698 FILLER_14_103
*699 FILLER_14_121
*700 FILLER_14_123
*701 FILLER_14_174
*702 FILLER_14_189
*703 FILLER_14_2
*704 FILLER_14_213
*705 FILLER_14_229
*706 FILLER_14_237
*707 FILLER_14_29
*708 FILLER_14_33
*709 FILLER_14_6
*710 FILLER_14_8
*711 FILLER_15_163
*712 FILLER_15_196
*713 FILLER_15_204
*714 FILLER_15_208
*715 FILLER_15_220
*716 FILLER_15_236
*717 FILLER_15_240
*718 FILLER_15_78
*719 FILLER_16_113
*720 FILLER_16_162
*721 FILLER_16_2
*722 FILLER_16_223
*723 FILLER_16_239
*724 FILLER_16_51
*725 FILLER_16_6
*726 FILLER_17_148
*727 FILLER_17_150
*728 FILLER_17_2
*729 FILLER_17_203
*730 FILLER_17_207
*731 FILLER_17_209
*732 FILLER_17_232
*733 FILLER_17_240
*734 FILLER_17_26
*735 FILLER_17_79
*736 FILLER_18_107
*737 FILLER_18_115
*738 FILLER_18_117
*739 FILLER_18_156
*740 FILLER_18_167
*741 FILLER_18_2
*742 FILLER_18_209
*743 FILLER_18_6
*744 FILLER_19_139
*745 FILLER_19_194
*746 FILLER_19_2
*747 FILLER_19_212
*748 FILLER_19_228
*749 FILLER_19_236
*750 FILLER_19_240
*751 FILLER_19_43
*752 FILLER_19_78
*753 FILLER_19_80
*754 FILLER_19_89
*755 FILLER_1_103
*756 FILLER_1_119
*757 FILLER_1_135
*758 FILLER_1_139
*759 FILLER_1_142
*760 FILLER_1_2
*761 FILLER_1_206
*762 FILLER_1_212
*763 FILLER_1_220
*764 FILLER_1_224
*765 FILLER_1_66
*766 FILLER_1_72
*767 FILLER_1_88
*768 FILLER_1_92
*769 FILLER_1_94
*770 FILLER_20_107
*771 FILLER_20_123
*772 FILLER_20_174
*773 FILLER_20_183
*774 FILLER_20_187
*775 FILLER_20_189
*776 FILLER_20_210
*777 FILLER_20_226
*778 FILLER_20_234
*779 FILLER_20_238
*780 FILLER_20_240
*781 FILLER_20_30
*782 FILLER_20_34
*783 FILLER_20_51
*784 FILLER_21_120
*785 FILLER_21_136
*786 FILLER_21_2
*787 FILLER_21_204
*788 FILLER_21_208
*789 FILLER_21_220
*790 FILLER_21_236
*791 FILLER_21_240
*792 FILLER_22_127
*793 FILLER_22_131
*794 FILLER_22_172
*795 FILLER_22_174
*796 FILLER_22_2
*797 FILLER_22_209
*798 FILLER_22_6
*799 FILLER_23_142
*800 FILLER_23_16
*801 FILLER_23_186
*802 FILLER_23_202
*803 FILLER_23_212
*804 FILLER_23_220
*805 FILLER_23_232
*806 FILLER_23_240
*807 FILLER_23_72
*808 FILLER_24_101
*809 FILLER_24_165
*810 FILLER_24_183
*811 FILLER_24_2
*812 FILLER_24_215
*813 FILLER_24_231
*814 FILLER_24_239
*815 FILLER_24_26
*816 FILLER_24_34
*817 FILLER_24_51
*818 FILLER_25_117
*819 FILLER_25_119
*820 FILLER_25_157
*821 FILLER_25_159
*822 FILLER_25_192
*823 FILLER_25_2
*824 FILLER_25_208
*825 FILLER_25_212
*826 FILLER_25_220
*827 FILLER_25_240
*828 FILLER_25_64
*829 FILLER_25_68
*830 FILLER_25_80
*831 FILLER_25_84
*832 FILLER_26_10
*833 FILLER_26_107
*834 FILLER_26_111
*835 FILLER_26_121
*836 FILLER_26_14
*837 FILLER_26_154
*838 FILLER_26_2
*839 FILLER_26_200
*840 FILLER_26_210
*841 FILLER_26_218
*842 FILLER_26_37
*843 FILLER_26_39
*844 FILLER_26_72
*845 FILLER_26_80
*846 FILLER_26_84
*847 FILLER_27_116
*848 FILLER_27_162
*849 FILLER_27_164
*850 FILLER_27_205
*851 FILLER_27_209
*852 FILLER_27_212
*853 FILLER_27_36
*854 FILLER_27_40
*855 FILLER_27_61
*856 FILLER_27_69
*857 FILLER_27_72
*858 FILLER_28_104
*859 FILLER_28_107
*860 FILLER_28_119
*861 FILLER_28_121
*862 FILLER_28_142
*863 FILLER_28_158
*864 FILLER_28_166
*865 FILLER_28_177
*866 FILLER_28_2
*867 FILLER_28_209
*868 FILLER_28_225
*869 FILLER_28_31
*870 FILLER_28_37
*871 FILLER_28_81
*872 FILLER_28_83
*873 FILLER_29_10
*874 FILLER_29_125
*875 FILLER_29_129
*876 FILLER_29_139
*877 FILLER_29_2
*878 FILLER_29_202
*879 FILLER_29_212
*880 FILLER_29_66
*881 FILLER_29_72
*882 FILLER_29_80
*883 FILLER_29_84
*884 FILLER_2_101
*885 FILLER_2_107
*886 FILLER_2_171
*887 FILLER_2_177
*888 FILLER_2_2
*889 FILLER_2_34
*890 FILLER_2_37
*891 FILLER_30_103
*892 FILLER_30_115
*893 FILLER_30_163
*894 FILLER_30_171
*895 FILLER_30_2
*896 FILLER_30_209
*897 FILLER_30_28
*898 FILLER_30_32
*899 FILLER_30_34
*900 FILLER_30_51
*901 FILLER_30_6
*902 FILLER_30_95
*903 FILLER_31_112
*904 FILLER_31_150
*905 FILLER_31_158
*906 FILLER_31_195
*907 FILLER_31_203
*908 FILLER_31_207
*909 FILLER_31_209
*910 FILLER_31_212
*911 FILLER_31_48
*912 FILLER_32_107
*913 FILLER_32_137
*914 FILLER_32_145
*915 FILLER_32_197
*916 FILLER_32_2
*917 FILLER_32_213
*918 FILLER_32_221
*919 FILLER_32_225
*920 FILLER_32_29
*921 FILLER_32_33
*922 FILLER_32_45
*923 FILLER_32_47
*924 FILLER_32_6
*925 FILLER_32_68
*926 FILLER_32_72
*927 FILLER_32_8
*928 FILLER_33_134
*929 FILLER_33_138
*930 FILLER_33_142
*931 FILLER_33_146
*932 FILLER_33_180
*933 FILLER_33_196
*934 FILLER_33_204
*935 FILLER_33_208
*936 FILLER_33_212
*937 FILLER_33_54
*938 FILLER_33_92
*939 FILLER_34_10
*940 FILLER_34_107
*941 FILLER_34_111
*942 FILLER_34_113
*943 FILLER_34_146
*944 FILLER_34_150
*945 FILLER_34_152
*946 FILLER_34_173
*947 FILLER_34_185
*948 FILLER_34_2
*949 FILLER_34_201
*950 FILLER_34_209
*951 FILLER_34_32
*952 FILLER_34_34
*953 FILLER_34_45
*954 FILLER_34_49
*955 FILLER_34_84
*956 FILLER_35_128
*957 FILLER_35_130
*958 FILLER_35_139
*959 FILLER_35_142
*960 FILLER_35_198
*961 FILLER_35_2
*962 FILLER_35_206
*963 FILLER_35_212
*964 FILLER_35_220
*965 FILLER_35_224
*966 FILLER_35_226
*967 FILLER_35_43
*968 FILLER_35_51
*969 FILLER_35_55
*970 FILLER_35_6
*971 FILLER_35_72
*972 FILLER_35_8
*973 FILLER_36_10
*974 FILLER_36_107
*975 FILLER_36_111
*976 FILLER_36_14
*977 FILLER_36_173
*978 FILLER_36_177
*979 FILLER_36_209
*980 FILLER_36_225
*981 FILLER_36_37
*982 FILLER_36_61
*983 FILLER_36_65
*984 FILLER_36_87
*985 FILLER_36_95
*986 FILLER_37_137
*987 FILLER_37_139
*988 FILLER_37_142
*989 FILLER_37_203
*990 FILLER_37_207
*991 FILLER_37_209
*992 FILLER_37_212
*993 FILLER_37_220
*994 FILLER_37_224
*995 FILLER_37_226
*996 FILLER_37_80
*997 FILLER_37_84
*998 FILLER_38_10
*999 FILLER_38_107
*1000 FILLER_38_14
*1001 FILLER_38_163
*1002 FILLER_38_171
*1003 FILLER_38_2
*1004 FILLER_38_209
*1005 FILLER_39_127
*1006 FILLER_39_135
*1007 FILLER_39_139
*1008 FILLER_39_150
*1009 FILLER_39_152
*1010 FILLER_39_2
*1011 FILLER_39_205
*1012 FILLER_39_209
*1013 FILLER_39_212
*1014 FILLER_39_26
*1015 FILLER_39_34
*1016 FILLER_39_72
*1017 FILLER_39_76
*1018 FILLER_39_78
*1019 FILLER_3_136
*1020 FILLER_3_142
*1021 FILLER_3_16
*1022 FILLER_3_206
*1023 FILLER_3_212
*1024 FILLER_3_228
*1025 FILLER_3_236
*1026 FILLER_3_240
*1027 FILLER_3_48
*1028 FILLER_3_64
*1029 FILLER_3_68
*1030 FILLER_3_72
*1031 FILLER_40_103
*1032 FILLER_40_107
*1033 FILLER_40_111
*1034 FILLER_40_113
*1035 FILLER_40_172
*1036 FILLER_40_174
*1037 FILLER_40_193
*1038 FILLER_40_225
*1039 FILLER_40_30
*1040 FILLER_40_34
*1041 FILLER_40_51
*1042 FILLER_40_55
*1043 FILLER_40_76
*1044 FILLER_40_78
*1045 FILLER_40_99
*1046 FILLER_41_10
*1047 FILLER_41_12
*1048 FILLER_41_142
*1049 FILLER_41_150
*1050 FILLER_41_154
*1051 FILLER_41_175
*1052 FILLER_41_2
*1053 FILLER_41_207
*1054 FILLER_41_209
*1055 FILLER_41_212
*1056 FILLER_41_45
*1057 FILLER_41_49
*1058 FILLER_41_80
*1059 FILLER_42_103
*1060 FILLER_42_143
*1061 FILLER_42_145
*1062 FILLER_42_166
*1063 FILLER_42_177
*1064 FILLER_42_2
*1065 FILLER_42_209
*1066 FILLER_43_142
*1067 FILLER_43_146
*1068 FILLER_43_188
*1069 FILLER_43_2
*1070 FILLER_43_204
*1071 FILLER_43_208
*1072 FILLER_43_212
*1073 FILLER_43_72
*1074 FILLER_43_76
*1075 FILLER_43_86
*1076 FILLER_44_157
*1077 FILLER_44_173
*1078 FILLER_44_177
*1079 FILLER_44_209
*1080 FILLER_44_22
*1081 FILLER_44_225
*1082 FILLER_44_26
*1083 FILLER_44_37
*1084 FILLER_45_10
*1085 FILLER_45_178
*1086 FILLER_45_2
*1087 FILLER_45_212
*1088 FILLER_45_67
*1089 FILLER_45_69
*1090 FILLER_45_72
*1091 FILLER_45_80
*1092 FILLER_46_107
*1093 FILLER_46_160
*1094 FILLER_46_168
*1095 FILLER_46_172
*1096 FILLER_46_174
*1097 FILLER_46_177
*1098 FILLER_46_2
*1099 FILLER_46_209
*1100 FILLER_46_37
*1101 FILLER_46_45
*1102 FILLER_46_6
*1103 FILLER_47_127
*1104 FILLER_47_136
*1105 FILLER_47_142
*1106 FILLER_47_2
*1107 FILLER_47_206
*1108 FILLER_47_212
*1109 FILLER_47_23
*1110 FILLER_47_27
*1111 FILLER_47_29
*1112 FILLER_47_72
*1113 FILLER_47_76
*1114 FILLER_48_147
*1115 FILLER_48_163
*1116 FILLER_48_171
*1117 FILLER_48_177
*1118 FILLER_48_2
*1119 FILLER_48_209
*1120 FILLER_48_225
*1121 FILLER_48_31
*1122 FILLER_48_37
*1123 FILLER_48_59
*1124 FILLER_48_63
*1125 FILLER_48_96
*1126 FILLER_49_10
*1127 FILLER_49_131
*1128 FILLER_49_139
*1129 FILLER_49_14
*1130 FILLER_49_142
*1131 FILLER_49_2
*1132 FILLER_49_206
*1133 FILLER_49_212
*1134 FILLER_49_31
*1135 FILLER_49_47
*1136 FILLER_49_49
*1137 FILLER_49_66
*1138 FILLER_49_72
*1139 FILLER_4_101
*1140 FILLER_4_107
*1141 FILLER_4_16
*1142 FILLER_4_171
*1143 FILLER_4_177
*1144 FILLER_4_32
*1145 FILLER_4_34
*1146 FILLER_4_37
*1147 FILLER_50_115
*1148 FILLER_50_119
*1149 FILLER_50_140
*1150 FILLER_50_172
*1151 FILLER_50_174
*1152 FILLER_50_177
*1153 FILLER_50_2
*1154 FILLER_50_209
*1155 FILLER_50_34
*1156 FILLER_50_37
*1157 FILLER_50_45
*1158 FILLER_50_79
*1159 FILLER_50_83
*1160 FILLER_51_105
*1161 FILLER_51_113
*1162 FILLER_51_135
*1163 FILLER_51_139
*1164 FILLER_51_142
*1165 FILLER_51_2
*1166 FILLER_51_206
*1167 FILLER_51_212
*1168 FILLER_51_66
*1169 FILLER_51_92
*1170 FILLER_51_96
*1171 FILLER_52_101
*1172 FILLER_52_107
*1173 FILLER_52_115
*1174 FILLER_52_117
*1175 FILLER_52_138
*1176 FILLER_52_170
*1177 FILLER_52_174
*1178 FILLER_52_177
*1179 FILLER_52_2
*1180 FILLER_52_209
*1181 FILLER_52_225
*1182 FILLER_52_34
*1183 FILLER_52_37
*1184 FILLER_53_136
*1185 FILLER_53_142
*1186 FILLER_53_2
*1187 FILLER_53_206
*1188 FILLER_53_212
*1189 FILLER_53_66
*1190 FILLER_53_72
*1191 FILLER_54_101
*1192 FILLER_54_107
*1193 FILLER_54_171
*1194 FILLER_54_177
*1195 FILLER_54_2
*1196 FILLER_54_209
*1197 FILLER_54_34
*1198 FILLER_54_37
*1199 FILLER_55_136
*1200 FILLER_55_142
*1201 FILLER_55_2
*1202 FILLER_55_206
*1203 FILLER_55_212
*1204 FILLER_55_66
*1205 FILLER_55_72
*1206 FILLER_56_101
*1207 FILLER_56_107
*1208 FILLER_56_171
*1209 FILLER_56_177
*1210 FILLER_56_2
*1211 FILLER_56_209
*1212 FILLER_56_225
*1213 FILLER_56_34
*1214 FILLER_56_37
*1215 FILLER_57_136
*1216 FILLER_57_142
*1217 FILLER_57_2
*1218 FILLER_57_206
*1219 FILLER_57_212
*1220 FILLER_57_66
*1221 FILLER_57_72
*1222 FILLER_58_101
*1223 FILLER_58_107
*1224 FILLER_58_171
*1225 FILLER_58_177
*1226 FILLER_58_2
*1227 FILLER_58_209
*1228 FILLER_58_34
*1229 FILLER_58_37
*1230 FILLER_59_136
*1231 FILLER_59_142
*1232 FILLER_59_2
*1233 FILLER_59_206
*1234 FILLER_59_212
*1235 FILLER_59_66
*1236 FILLER_59_72
*1237 FILLER_5_100
*1238 FILLER_5_138
*1239 FILLER_5_142
*1240 FILLER_5_16
*1241 FILLER_5_206
*1242 FILLER_5_212
*1243 FILLER_5_228
*1244 FILLER_5_236
*1245 FILLER_5_240
*1246 FILLER_5_28
*1247 FILLER_5_60
*1248 FILLER_5_72
*1249 FILLER_5_88
*1250 FILLER_5_96
*1251 FILLER_60_101
*1252 FILLER_60_107
*1253 FILLER_60_171
*1254 FILLER_60_177
*1255 FILLER_60_2
*1256 FILLER_60_209
*1257 FILLER_60_225
*1258 FILLER_60_34
*1259 FILLER_60_37
*1260 FILLER_61_136
*1261 FILLER_61_142
*1262 FILLER_61_2
*1263 FILLER_61_206
*1264 FILLER_61_212
*1265 FILLER_61_66
*1266 FILLER_61_72
*1267 FILLER_62_101
*1268 FILLER_62_107
*1269 FILLER_62_171
*1270 FILLER_62_177
*1271 FILLER_62_2
*1272 FILLER_62_209
*1273 FILLER_62_34
*1274 FILLER_62_37
*1275 FILLER_63_136
*1276 FILLER_63_142
*1277 FILLER_63_174
*1278 FILLER_63_190
*1279 FILLER_63_198
*1280 FILLER_63_2
*1281 FILLER_63_212
*1282 FILLER_63_66
*1283 FILLER_63_72
*1284 FILLER_64_101
*1285 FILLER_64_107
*1286 FILLER_64_171
*1287 FILLER_64_177
*1288 FILLER_64_2
*1289 FILLER_64_209
*1290 FILLER_64_34
*1291 FILLER_64_37
*1292 FILLER_65_136
*1293 FILLER_65_142
*1294 FILLER_65_174
*1295 FILLER_65_182
*1296 FILLER_65_192
*1297 FILLER_65_2
*1298 FILLER_65_212
*1299 FILLER_65_66
*1300 FILLER_65_72
*1301 FILLER_66_101
*1302 FILLER_66_107
*1303 FILLER_66_171
*1304 FILLER_66_177
*1305 FILLER_66_193
*1306 FILLER_66_197
*1307 FILLER_66_2
*1308 FILLER_66_34
*1309 FILLER_66_37
*1310 FILLER_67_136
*1311 FILLER_67_142
*1312 FILLER_67_174
*1313 FILLER_67_182
*1314 FILLER_67_186
*1315 FILLER_67_2
*1316 FILLER_67_212
*1317 FILLER_67_66
*1318 FILLER_67_72
*1319 FILLER_68_101
*1320 FILLER_68_107
*1321 FILLER_68_139
*1322 FILLER_68_155
*1323 FILLER_68_171
*1324 FILLER_68_2
*1325 FILLER_68_34
*1326 FILLER_68_37
*1327 FILLER_69_10
*1328 FILLER_69_111
*1329 FILLER_69_12
*1330 FILLER_69_127
*1331 FILLER_69_135
*1332 FILLER_69_139
*1333 FILLER_69_142
*1334 FILLER_69_144
*1335 FILLER_69_159
*1336 FILLER_69_167
*1337 FILLER_69_2
*1338 FILLER_69_207
*1339 FILLER_69_209
*1340 FILLER_69_212
*1341 FILLER_69_27
*1342 FILLER_69_43
*1343 FILLER_69_47
*1344 FILLER_69_63
*1345 FILLER_69_67
*1346 FILLER_69_69
*1347 FILLER_69_72
*1348 FILLER_69_88
*1349 FILLER_69_96
*1350 FILLER_6_104
*1351 FILLER_6_107
*1352 FILLER_6_115
*1353 FILLER_6_148
*1354 FILLER_6_164
*1355 FILLER_6_172
*1356 FILLER_6_174
*1357 FILLER_6_177
*1358 FILLER_6_24
*1359 FILLER_6_32
*1360 FILLER_6_34
*1361 FILLER_6_37
*1362 FILLER_6_53
*1363 FILLER_6_81
*1364 FILLER_6_89
*1365 FILLER_6_93
*1366 FILLER_6_95
*1367 FILLER_70_101
*1368 FILLER_70_104
*1369 FILLER_70_106
*1370 FILLER_70_135
*1371 FILLER_70_152
*1372 FILLER_70_16
*1373 FILLER_70_200
*1374 FILLER_70_234
*1375 FILLER_70_240
*1376 FILLER_70_36
*1377 FILLER_70_51
*1378 FILLER_70_53
*1379 FILLER_70_70
*1380 FILLER_70_8
*1381 FILLER_70_99
*1382 FILLER_7_121
*1383 FILLER_7_137
*1384 FILLER_7_139
*1385 FILLER_7_142
*1386 FILLER_7_206
*1387 FILLER_7_212
*1388 FILLER_7_228
*1389 FILLER_7_236
*1390 FILLER_7_240
*1391 FILLER_7_30
*1392 FILLER_7_62
*1393 FILLER_7_72
*1394 FILLER_7_76
*1395 FILLER_7_78
*1396 FILLER_7_87
*1397 FILLER_7_99
*1398 FILLER_8_100
*1399 FILLER_8_127
*1400 FILLER_8_131
*1401 FILLER_8_151
*1402 FILLER_8_167
*1403 FILLER_8_177
*1404 FILLER_8_30
*1405 FILLER_8_34
*1406 FILLER_8_37
*1407 FILLER_8_61
*1408 FILLER_8_69
*1409 FILLER_8_73
*1410 FILLER_8_94
*1411 FILLER_8_98
*1412 FILLER_9_154
*1413 FILLER_9_162
*1414 FILLER_9_166
*1415 FILLER_9_199
*1416 FILLER_9_207
*1417 FILLER_9_209
*1418 FILLER_9_212
*1419 FILLER_9_228
*1420 FILLER_9_236
*1421 FILLER_9_240
*1422 FILLER_9_30
*1423 FILLER_9_34
*1424 FILLER_9_36
*1425 FILLER_9_72
*1426 FILLER_9_80
*1427 FILLER_9_84
*1428 PHY_EDGE_ROW_0_Left_71
*1429 PHY_EDGE_ROW_0_Right_0
*1430 PHY_EDGE_ROW_10_Left_81
*1431 PHY_EDGE_ROW_10_Right_10
*1432 PHY_EDGE_ROW_11_Left_82